<?xml version="1.0" encoding="UTF-8"?>
<!DOCTYPE transitSchedule SYSTEM "https://www.matsim.org/files/dtd/transitSchedule_v2.dtd">
<transitSchedule>
	<transitStops>
		<stopFacility id="0" x="1579166.38104488" y="-3922118.211642" linkRefId="1501" name="Circular Quay" isBlocking="false"/>
		<stopFacility id="1" x="1579166.38104488" y="-3922118.211642" linkRefId="1096" name="Circular Quay" isBlocking="false"/>
		<stopFacility id="2" x="1578621.65078077" y="-3923098.49714301" linkRefId="1885" name="Market St (194, 270, 271, 273, 274, 594, 594H, L70)" isBlocking="false"/>
		<stopFacility id="3" x="1579235.49578836" y="-3922028.10925986" linkRefId="2218" name="Circular Quay, Wharf 5, Side A" isBlocking="false"/>
		<stopFacility id="4" x="1578261.65318818" y="-3922849.53813077" linkRefId="1158" name="Darling Harbour Wharf 9" isBlocking="false"/>
		<stopFacility id="5" x="1579303.94489005" y="-3922171.12872875" linkRefId="1159" name="Circular Quay, Alfred St, Stand A" isBlocking="false"/>
		<stopFacility id="6" x="1579348.13591192" y="-3922182.38711567" linkRefId="1160" name="Circular Quay, Alfred St, Stand B" isBlocking="false"/>
		<stopFacility id="7" x="1578790.38433652" y="-3922500.40755606" linkRefId="1163" name="Stand A" isBlocking="false"/>
		<stopFacility id="8" x="1578782.9784009" y="-3922532.43750877" linkRefId="1165" isBlocking="false"/>
		<stopFacility id="9" x="1578777.04947729" y="-3922558.07958801" linkRefId="1167" name="Stand A" isBlocking="false"/>
		<stopFacility id="10" x="1578772.87218638" y="-3922576.26012527" linkRefId="1171" name="D" isBlocking="false"/>
		<stopFacility id="11" x="1578757.606567" y="-3922640.39348897" linkRefId="1173" name="EF" isBlocking="false"/>
		<stopFacility id="12" x="1578748.19757576" y="-3922681.54064344" linkRefId="1375" name="G" isBlocking="false"/>
		<stopFacility id="13" x="1578344.01458675" y="-3922841.2577259" linkRefId="1373" name="King Street Wharf Terminus (252, 261)" isBlocking="false"/>
		<stopFacility id="14" x="1578711.94260026" y="-3922589.31873567" linkRefId="1831" name="Stand K, Wynyard Station York St" isBlocking="false"/>
		<stopFacility id="15" x="1579189.88462069" y="-3922016.63342999" linkRefId="2365" name="Circular Quay, Wharf 6, Side B" isBlocking="false"/>
		<stopFacility id="16" x="1578713.92511076" y="-3922550.93077622" linkRefId="406" name="Stand M, Wynyard" isBlocking="false"/>
		<stopFacility id="17" x="1578714.63238259" y="-3922533.11863671" linkRefId="2009" name="Wynyard Station, York St, Stand M" isBlocking="false"/>
		<stopFacility id="18" x="1578700.06627168" y="-3922873.18825228" linkRefId="388" isBlocking="false"/>
		<stopFacility id="19" x="1578700.06627168" y="-3922873.18825228" linkRefId="472" isBlocking="false"/>
		<stopFacility id="20" x="1578633.11638291" y="-3922769.12556038" linkRefId="420" name="Clarence St opp Barrack St" isBlocking="false"/>
		<stopFacility id="21" x="1578647.93462939" y="-3922432.41106003" linkRefId="2231" name="Wynyard Station, Clarence St, Stand Q" isBlocking="false"/>
		<stopFacility id="22" x="1578964.47420714" y="-3923215.79135064" linkRefId="1385" name="St James Station, Castlereagh St, Stand D" isBlocking="false"/>
		<stopFacility id="23" x="1578721.02175626" y="-3922342.15074574" linkRefId="1253" name="Lang Park, York St" isBlocking="false"/>
		<stopFacility id="24" x="1578399.75017939" y="-3922633.71903574" linkRefId="1363" name="King Street Wharf, Erskine St (252, 261)" isBlocking="false"/>
		<stopFacility id="25" x="1578690.82143201" y="-3923100.04115499" linkRefId="749" name="Stand E, QVB, York St" isBlocking="false"/>
		<stopFacility id="26" x="1579139.70142868" y="-3922782.4143755" linkRefId="83" name="Stand C, Martin Place, Elizabeth Street" isBlocking="false"/>
		<stopFacility id="27" x="1578716.58652813" y="-3922649.96734381" linkRefId="667" name="Wynyard" isBlocking="false"/>
		<stopFacility id="28" x="1579283.24464941" y="-3922476.56772845" linkRefId="607" name="Museum of Sydney, Phillip St" isBlocking="false"/>
		<stopFacility id="29" x="1579327.94349468" y="-3922308.33469943" linkRefId="1849" name="Circular Quay, Phillip St, Stand C" isBlocking="false"/>
		<stopFacility id="30" x="1579094.68493821" y="-3922978.20796472" linkRefId="2131" name="Martin Place Station, Elizabeth St, Stand E" isBlocking="false"/>
		<stopFacility id="31" x="1579297.7328308" y="-3922424.23962086" linkRefId="1196" name="Phillip St opp Museum of Sydney" isBlocking="false"/>
		<stopFacility id="32" x="1578582.36366172" y="-3922492.30905472" linkRefId="1371" name="Kent Street before Napoleon Street" isBlocking="false"/>
		<stopFacility id="33" x="1578560.00178117" y="-3923048.76591172" linkRefId="895" name="Kent St after Market St" isBlocking="false"/>
		<stopFacility id="34" x="1578555.81015514" y="-3923209.87500201" linkRefId="42" name="Kent St after Druitt St" isBlocking="false"/>
		<stopFacility id="35" x="1578706.76641913" y="-3922506.25093709" linkRefId="404" name="Wynyard" isBlocking="false"/>
		<stopFacility id="36" x="1579307.3155597" y="-3922743.1710565" linkRefId="70" name="Stand B, Martin Place" isBlocking="false"/>
		<stopFacility id="37" x="1579364.61100425" y="-3922535.42116906" linkRefId="2411" name="Royal Botanic Gardens" isBlocking="false"/>
		<stopFacility id="38" x="1578708.21286685" y="-3922653.61299083" linkRefId="2239" name="Wynyard Station, York St, Stand H" isBlocking="false"/>
		<stopFacility id="39" x="1578707.50870603" y="-3923429.7392576" linkRefId="2163" name="Town Hall Station, Platform 1" isBlocking="false"/>
		<stopFacility id="40" x="1578707.50870603" y="-3923429.7392576" linkRefId="702" name="Town Hall Station, Platform 1" isBlocking="false"/>
		<stopFacility id="41" x="1578693.51304455" y="-3923431.25719401" linkRefId="2195" name="Town Hall Station, Platform 3" isBlocking="false"/>
		<stopFacility id="42" x="1578693.51304455" y="-3923431.25719401" linkRefId="704" name="Town Hall Station, Platform 3" isBlocking="false"/>
		<stopFacility id="41" x="1578693.51304455" y="-3923431.25719401" linkRefId="2195" name="Town Hall Station, Platform 2" isBlocking="false"/>
		<stopFacility id="42" x="1578693.51304455" y="-3923431.25719401" linkRefId="704" name="Town Hall Station, Platform 2" isBlocking="false"/>
		<stopFacility id="43" x="1578702.481265" y="-3923438.05514723" linkRefId="2179" name="Town Hall Station, Platform 5" isBlocking="false"/>
		<stopFacility id="44" x="1578500.12935955" y="-3922320.16286931" linkRefId="1234" name="Hickson Rd opp Barangaroo South" isBlocking="false"/>
		<stopFacility id="45" x="1578702.481265" y="-3923438.05514723" linkRefId="706" name="Town Hall Station, Platform 5" isBlocking="false"/>
		<stopFacility id="46" x="1578717.31527073" y="-3923425.24857632" linkRefId="2191" name="Town Hall Station, Platform 4" isBlocking="false"/>
		<stopFacility id="47" x="1578717.31527073" y="-3923425.24857632" linkRefId="710" name="Town Hall Station, Platform 4" isBlocking="false"/>
		<stopFacility id="48" x="1578691.91880451" y="-3923424.0754581" linkRefId="1411" name="Town Hall Station, Platform 6" isBlocking="false"/>
		<stopFacility id="49" x="1578691.91880451" y="-3923424.0754581" linkRefId="712" name="Town Hall Station, Platform 6" isBlocking="false"/>
		<stopFacility id="50" x="1578659.85297635" y="-3922393.23266304" linkRefId="714" name="Wynyard Station, Jamison St, Stand U" isBlocking="false"/>
		<stopFacility id="51" x="1578938.73374499" y="-3922353.03469964" linkRefId="624" name="Burns Philp Building, Bridge St" isBlocking="false"/>
		<stopFacility id="52" x="1579414.59020753" y="-3923218.71772614" linkRefId="716" name="St Mary's Cathedral, St Marys Rd" isBlocking="false"/>
		<stopFacility id="53" x="1578699.87988292" y="-3923459.98786033" linkRefId="1129" name="Town Hall Light Rail" isBlocking="false"/>
		<stopFacility id="54" x="1579503.39295699" y="-3920946.24588333" linkRefId="718" name="Olympic Dr before Alfred St" isBlocking="false"/>
		<stopFacility id="55" x="1578710.00594611" y="-3921584.84285689" linkRefId="735" name="Roslyn Packer Theatre" isBlocking="false"/>
		<stopFacility id="56" x="1579796.19439361" y="-3923406.11022843" linkRefId="1391" name="Bourke St at Charles St" isBlocking="false"/>
		<stopFacility id="57" x="1579272.00630439" y="-3922572.62034926" linkRefId="2221" name="Chifley Tower, Bent St" isBlocking="false"/>
		<stopFacility id="58" x="1578494.10950516" y="-3922573.76448729" linkRefId="724" name="Sussex St before Erskine St" isBlocking="false"/>
		<stopFacility id="59" x="1580144.21664555" y="-3922511.04929674" linkRefId="759" name="Andrew (Boy) Charlton Pool, Mrs Macquaries Rd" isBlocking="false"/>
		<stopFacility id="60" x="1579091.97287311" y="-3922359.47088223" linkRefId="2662" name="Bridge St at Gresham St" isBlocking="false"/>
		<stopFacility id="53" x="1578699.87988292" y="-3923459.98786033" linkRefId="1129" name="Town Hall Light Rail" isBlocking="false"/>
		<stopFacility id="61" x="1579809.00905289" y="-3923367.55401802" linkRefId="728" name="Bourke St opp Charles St" isBlocking="false"/>
		<stopFacility id="62" x="1579890.47346923" y="-3923126.77610308" linkRefId="732" name="Bourke St at Nicholson St" isBlocking="false"/>
		<stopFacility id="63" x="1579533.78055653" y="-3923391.73788515" linkRefId="734" name="Riley St at Cathedral St" isBlocking="false"/>
		<stopFacility id="64" x="1578940.01341006" y="-3921515.01892882" linkRefId="1475" name="Hickson Rd opp Wharf Theatres" isBlocking="false"/>
		<stopFacility id="65" x="1578600.34476953" y="-3921711.70698723" linkRefId="1240" name="High Lane" isBlocking="false"/>
		<stopFacility id="66" x="1578471.90790171" y="-3922996.21601023" linkRefId="500" name="Sussex St after King St" isBlocking="false"/>
		<stopFacility id="67" x="1578705.76122023" y="-3922714.61790056" linkRefId="2005" name="Wynyard Station, York St, Stand G" isBlocking="false"/>
		<stopFacility id="68" x="1579139.70142868" y="-3922782.4143755" linkRefId="1521" name="Martin Place Station, Elizabeth St, Stand G" isBlocking="false"/>
		<stopFacility id="69" x="1578999.22192176" y="-3923362.22182514" linkRefId="1255" name="Hyde Park, Elizabeth St, Stand A" isBlocking="false"/>
		<stopFacility id="70" x="1579629.66975967" y="-3920564.99675416" linkRefId="2519" name="Milsons Point Station, Broughton St" isBlocking="false"/>
		<stopFacility id="71" x="1578460.11624593" y="-3923322.64811911" linkRefId="975" name="Town Hall House, Druitt St, Stand L" isBlocking="false"/>
		<stopFacility id="72" x="1578624.3922174" y="-3921586.64795785" linkRefId="744" name="Hickson Rd opp Towns Pl" isBlocking="false"/>
		<stopFacility id="73" x="1578709.03509345" y="-3922634.03568667" linkRefId="1175" name="Wynyard Station, York St, Stand J" isBlocking="false"/>
		<stopFacility id="74" x="1579433.03743053" y="-3920906.82412833" linkRefId="981" name="Milsons Point Wharf, Side B" isBlocking="false"/>
		<stopFacility id="75" x="1579433.03743053" y="-3920906.82412833" linkRefId="748" name="Milsons Point Wharf, Side B" isBlocking="false"/>
		<stopFacility id="76" x="1578751.90830757" y="-3921576.98303669" linkRefId="1473" name="Hickson Rd opp Roslyn Packer Theatre" isBlocking="false"/>
		<stopFacility id="77" x="1579364.61100425" y="-3922535.42116906" linkRefId="1208" name="Macquarie St opp The Royal Botanic Gardens" isBlocking="false"/>
		<stopFacility id="78" x="1578693.42894483" y="-3923037.08129286" linkRefId="2007" name="QVB, York St, Stand E" isBlocking="false"/>
		<stopFacility id="79" x="1578681.35610725" y="-3923318.84543633" linkRefId="755" name="QVB, York St, Stand A" isBlocking="false"/>
		<stopFacility id="80" x="1578684.67670442" y="-3923273.89869415" linkRefId="1975" name="QVB, York St, Stand B" isBlocking="false"/>
		<stopFacility id="81" x="1578717.29034002" y="-3922475.8578999" linkRefId="2237" name="Wynyard Station, York St, Stand P" isBlocking="false"/>
		<stopFacility id="82" x="1578717.29034002" y="-3922475.8578999" linkRefId="581" name="Wynyard Station, York St, Stand P" isBlocking="false"/>
		<stopFacility id="83" x="1579488.76060455" y="-3923525.94092943" linkRefId="10" name="Riley St opp Kennedy St" isBlocking="false"/>
		<stopFacility id="84" x="1578783.38513078" y="-3921762.828795" linkRefId="1565" name="Argyle St at Kent St" isBlocking="false"/>
		<stopFacility id="85" x="1579810.83286696" y="-3922844.09302973" linkRefId="2503" name="Art Gallery Rd opp Art Gallery of NSW" isBlocking="false"/>
		<stopFacility id="86" x="1579022.6609868" y="-3922356.75830895" linkRefId="623" name="Exchange Square, Bridge St" isBlocking="false"/>
		<stopFacility id="87" x="1578666.35619365" y="-3921728.41852158" linkRefId="1599" name="Observatory Hill (311)" isBlocking="false"/>
		<stopFacility id="88" x="1579022.6609868" y="-3922356.75830895" linkRefId="625" name="Exchange Square, Bridge St" isBlocking="false"/>
		<stopFacility id="89" x="1578666.35619365" y="-3921728.41852158" linkRefId="1709" name="Observatory Hill (311)" isBlocking="false"/>
		<stopFacility id="90" x="1578716.58652813" y="-3922649.96734381" linkRefId="1100" name="Wynyard" isBlocking="false"/>
		<stopFacility id="91" x="1578767.71825647" y="-3921726.07698613" linkRefId="4" name="Millers Point Terminus (311)" isBlocking="false"/>
		<stopFacility id="92" x="1578979.86254228" y="-3921471.61973934" linkRefId="1241" name="Walsh Bay Terminus (324, 325)" isBlocking="false"/>
		<stopFacility id="93" x="1579677.56743593" y="-3922981.36407175" linkRefId="1248" name="Art Gallery of NSW" isBlocking="false"/>
		<stopFacility id="94" x="1579718.2142288" y="-3922945.52326148" linkRefId="1247" name="Art Gallery of NSW" isBlocking="false"/>
		<stopFacility id="95" x="1578706.76641913" y="-3922506.25093709" linkRefId="1104" name="Wynyard" isBlocking="false"/>
		<stopFacility id="68" x="1579139.70142868" y="-3922782.4143755" linkRefId="1521" name="Stand F, Martin Place, Elizabeth Street" isBlocking="false"/>
		<stopFacility id="96" x="1579040.65479376" y="-3922908.12829447" linkRefId="84" name="Stand H, Martin Place, Castlereagh St" isBlocking="false"/>
		<stopFacility id="97" x="1579020.3742584" y="-3923275.74301849" linkRefId="1259" name="St James Station, Elizabeth St, Stand A" isBlocking="false"/>
		<stopFacility id="98" x="1579033.30139472" y="-3923222.15975212" linkRefId="1997" name="St James Station, Elizabeth St, Stand B" isBlocking="false"/>
		<stopFacility id="99" x="1579020.3742584" y="-3923275.74301849" linkRefId="1256" name="St James Station, Elizabeth St, Stand C" isBlocking="false"/>
		<stopFacility id="100" x="1578644.28119135" y="-3922503.76822909" linkRefId="1219" name="Wynyard Station, Clarence St, Stand R" isBlocking="false"/>
		<stopFacility id="101" x="1578623.33929476" y="-3923039.70993016" linkRefId="1225" name="Clarence St after Market St" isBlocking="false"/>
		<stopFacility id="102" x="1578610.1154565" y="-3921528.87105492" linkRefId="680" name="Towns Pl after Hickson Rd" isBlocking="false"/>
		<stopFacility id="103" x="1578623.96644255" y="-3923013.14420412" linkRefId="629" name="Clarence St at Council Pl" isBlocking="false"/>
		<stopFacility id="104" x="1579271.43204609" y="-3922226.49112036" linkRefId="1264" name="Circular Quay, Young St, Stand D" isBlocking="false"/>
		<stopFacility id="105" x="1578492.27063867" y="-3922600.34799626" linkRefId="1266" name="Sussex St at Erskine St" isBlocking="false"/>
		<stopFacility id="106" x="1578733.56577355" y="-3922651.01466265" linkRefId="1415" name="Wynyard" isBlocking="false"/>
		<stopFacility id="107" x="1579274.11277622" y="-3922883.82718292" linkRefId="1268" name="Martin Place Station" isBlocking="false"/>
		<stopFacility id="108" x="1579196.28860728" y="-3922843.87059869" linkRefId="284" name="Martin Place" isBlocking="false"/>
		<stopFacility id="109" x="1579196.28860728" y="-3922843.87059869" linkRefId="1270" name="Martin Place" isBlocking="false"/>
		<stopFacility id="110" x="1578733.56577355" y="-3922651.01466265" linkRefId="1108" name="Wynyard" isBlocking="false"/>
		<stopFacility id="111" x="1578491.11875118" y="-3922612.06745881" linkRefId="418" name="Erskine Street Terminus (288, 290, 292)" isBlocking="false"/>
		<stopFacility id="112" x="1578722.2890673" y="-3922506.34016725" linkRefId="2177" name="Wynyard" isBlocking="false"/>
		<stopFacility id="113" x="1578722.2890673" y="-3922506.34016725" linkRefId="1110" name="Wynyard" isBlocking="false"/>
		<stopFacility id="114" x="1579197.74209007" y="-3923114.63894137" linkRefId="270" name="Platforms 1 &amp; 2" isBlocking="false"/>
		<stopFacility id="115" x="1579197.74209007" y="-3923114.63894137" linkRefId="1112" name="Platforms 1 &amp; 2" isBlocking="false"/>
		<stopFacility id="116" x="1579188.5821515" y="-3923265.36574941" linkRefId="274" name="Platforms 1 &amp; 2" isBlocking="false"/>
		<stopFacility id="117" x="1579304.10023854" y="-3922147.3487362" linkRefId="1417" name="Circular Quay" isBlocking="false"/>
		<stopFacility id="118" x="1579188.5821515" y="-3923265.36574941" linkRefId="1114" name="Platforms 1 &amp; 2" isBlocking="false"/>
		<stopFacility id="119" x="1579233.86899062" y="-3922852.17333584" linkRefId="1269" name="Martin Place" isBlocking="false"/>
		<stopFacility id="120" x="1579233.86899062" y="-3922852.17333584" linkRefId="1116" name="Martin Place" isBlocking="false"/>
		<stopFacility id="121" x="1579183.42643977" y="-3922139.34999884" linkRefId="2533" name="Circular Quay Light Rail" isBlocking="false"/>
		<stopFacility id="122" x="1578614.98738025" y="-3923227.85457163" linkRefId="835" name="Mullins St" isBlocking="false"/>
		<stopFacility id="123" x="1579183.42643977" y="-3922139.34999884" linkRefId="1118" name="Circular Quay Light Rail" isBlocking="false"/>
		<stopFacility id="124" x="1579180.99872303" y="-3922149.752229" linkRefId="2539" name="Circular Quay Light Rail" isBlocking="false"/>
		<stopFacility id="125" x="1579180.99872303" y="-3922149.752229" linkRefId="1120" name="Circular Quay Light Rail" isBlocking="false"/>
		<stopFacility id="126" x="1579181.89097809" y="-3922146.24428282" linkRefId="2541" name="Circular Quay Light Rail" isBlocking="false"/>
		<stopFacility id="127" x="1579181.89097809" y="-3922146.24428282" linkRefId="1122" name="Circular Quay Light Rail" isBlocking="false"/>
		<stopFacility id="128" x="1578736.68215442" y="-3923224.91219672" linkRefId="2509" name="QVB Light Rail" isBlocking="false"/>
		<stopFacility id="129" x="1579304.10023854" y="-3922147.3487362" linkRefId="1098" name="Circular Quay" isBlocking="false"/>
		<stopFacility id="130" x="1578736.68215442" y="-3923224.91219672" linkRefId="1128" name="QVB Light Rail" isBlocking="false"/>
		<stopFacility id="131" x="1578739.84270132" y="-3923225.16945739" linkRefId="1019" name="QVB Light Rail" isBlocking="false"/>
		<stopFacility id="132" x="1578739.84270132" y="-3923225.16945739" linkRefId="1130" name="QVB Light Rail" isBlocking="false"/>
		<stopFacility id="133" x="1578637.02383433" y="-3922687.36419355" linkRefId="691" name="Stand T, Wynyard Station Clarence St" isBlocking="false"/>
		<stopFacility id="134" x="1578830.84992905" y="-3922676.1911308" linkRefId="531" name="Wynyard Light Rail" isBlocking="false"/>
		<stopFacility id="135" x="1578830.84992905" y="-3922676.1911308" linkRefId="1134" name="Wynyard Light Rail" isBlocking="false"/>
		<stopFacility id="136" x="1578833.95022129" y="-3922676.75195612" linkRefId="993" name="Wynyard Light Rail" isBlocking="false"/>
		<stopFacility id="137" x="1578833.95022129" y="-3922676.75195612" linkRefId="1136" name="Wynyard Light Rail" isBlocking="false"/>
		<stopFacility id="138" x="1578894.92874203" y="-3922429.34051967" linkRefId="2609" name="Bridge Street Light Rail" isBlocking="false"/>
		<stopFacility id="139" x="1578894.92874203" y="-3922429.34051967" linkRefId="1138" name="Bridge Street Light Rail" isBlocking="false"/>
		<stopFacility id="140" x="1578901.33593137" y="-3922367.12780537" linkRefId="1041" name="Bridge Street Light Rail" isBlocking="false"/>
		<stopFacility id="141" x="1579371.92799423" y="-3922062.74989473" linkRefId="1942" name="Circular Quay, Wharf 2, Side A" isBlocking="false"/>
		<stopFacility id="142" x="1578901.33593137" y="-3922367.12780537" linkRefId="1140" name="Bridge Street Light Rail" isBlocking="false"/>
		<stopFacility id="143" x="1578239.81143039" y="-3922612.69166633" linkRefId="1142" name="Darling Harbour Wharf 3" isBlocking="false"/>
		<stopFacility id="144" x="1578641.89376585" y="-3922567.02600038" linkRefId="2425" name="Wynyard Station, Clarence St, Stand S" isBlocking="false"/>
		<stopFacility id="145" x="1578252.73202136" y="-3922694.60758499" linkRefId="1144" name="Darling Harbour, King St Wharf 5" isBlocking="false"/>
		<stopFacility id="146" x="1577112.97719889" y="-3921082.80738476" linkRefId="2443" name="Balmain Wharf" isBlocking="false"/>
		<stopFacility id="147" x="1578252.51151472" y="-3922529.99437362" linkRefId="2387" name="Darling Harbour Wharf 1" isBlocking="false"/>
		<stopFacility id="148" x="1578252.51151472" y="-3922529.99437362" linkRefId="2391" name="Darling Harbour Wharf 1" isBlocking="false"/>
		<stopFacility id="149" x="1578255.93486211" y="-3922313.95965359" linkRefId="2380" name="Barangaroo, Wharf 1, Sida A" isBlocking="false"/>
		<stopFacility id="150" x="1578267.54258094" y="-3922775.48087807" linkRefId="2625" name="Darling Harbour, King St Wharf 7" isBlocking="false"/>
		<stopFacility id="151" x="1578267.54258094" y="-3922775.48087807" linkRefId="2627" name="Darling Harbour, King St Wharf 7" isBlocking="false"/>
		<stopFacility id="152" x="1578270.28212003" y="-3922724.08968677" linkRefId="1146" name="Darling Harbour, King St Wharf 6" isBlocking="false"/>
		<stopFacility id="153" x="1579325.74611821" y="-3922050.35950715" linkRefId="1508" name="Circular Quay, Wharf 3, Side B" isBlocking="false"/>
		<stopFacility id="154" x="1578263.41931538" y="-3922655.05912008" linkRefId="1150" name="Darling Harbour, King St Wharf 4" isBlocking="false"/>
		<stopFacility id="155" x="1578616.3215429" y="-3923203.38155846" linkRefId="1215" name="Clarence St after Druitt St" isBlocking="false"/>
		<stopFacility id="156" x="1578267.22369108" y="-3922571.38155245" linkRefId="1152" name="Darling Harbour, King St Wharf 2" isBlocking="false"/>
		<stopFacility id="157" x="1578265.16235823" y="-3922792.76192045" linkRefId="1154" name="Darling Harbour, King St Wharf 8" isBlocking="false"/>
		<stopFacility id="158" x="1578249.62059113" y="-3922335.72179969" linkRefId="2382" name="Barangaroo, Wharf 1, Side B" isBlocking="false"/>
		<stopFacility id="159" x="1578255.90018748" y="-3922379.37776158" linkRefId="2405" name="Barangaroo, Wharf 2, Side A" isBlocking="false"/>
		<stopFacility id="160" x="1578249.44999628" y="-3922401.7894783" linkRefId="2407" name="Barangaroo, Wharf 2, Side B" isBlocking="false"/>
		<stopFacility id="161" x="1579707.9534058" y="-3920931.14963548" linkRefId="2364" name="Jefferys Street" isBlocking="false"/>
		<stopFacility id="162" x="1579707.9534058" y="-3920931.14963548" linkRefId="2448" name="Jefferys Street" isBlocking="false"/>
		<stopFacility id="163" x="1579395.97379415" y="-3920819.26568083" linkRefId="747" name="Milsons Point Wharf, Side A" isBlocking="false"/>
		<stopFacility id="164" x="1581286.73227087" y="-3920931.37076516" linkRefId="2369" name="Cremorne Point Wharf" isBlocking="false"/>
		<stopFacility id="165" x="1579279.38189964" y="-3922039.29185267" linkRefId="2216" name="Circular Quay, Wharf 4, Side A" isBlocking="false"/>
		<stopFacility id="166" x="1578626.95111507" y="-3922924.29296443" linkRefId="1261" name="King St (613X, 614X, 615X, 616X)" isBlocking="false"/>
		<stopFacility id="167" x="1579056.3631067" y="-3920729.16653105" linkRefId="2429" name="McMahons Point Wharf, Side A" isBlocking="false"/>
		<stopFacility id="168" x="1583786.0439466" y="-3923789.38768198" linkRefId="2440" name="Rose Bay Wharf" isBlocking="false"/>
		<stopFacility id="169" x="1581040.67228396" y="-3922020.4436872" linkRefId="2362" name="Garden Island" isBlocking="false"/>
		<stopFacility id="170" x="1580308.70381216" y="-3920949.46402829" linkRefId="1993" name="Kirribilli (High Street)" isBlocking="false"/>
		<stopFacility id="171" x="1580308.70381216" y="-3920949.46402829" linkRefId="2447" name="Kirribilli (High Street)" isBlocking="false"/>
		<stopFacility id="172" x="1580666.26693841" y="-3921602.3596881" linkRefId="2044" name="Fort Denison" isBlocking="false"/>
		<stopFacility id="173" x="1582088.40791171" y="-3920858.69625423" linkRefId="2373" name="Taronga Zoo Wharf" isBlocking="false"/>
		<stopFacility id="174" x="1578323.37449416" y="-3923017.81214885" linkRefId="2326" name="Darling Harbour, Pier 26" isBlocking="false"/>
		<stopFacility id="175" x="1583548.7485431" y="-3922535.78323256" linkRefId="2328" name="Shark Island Wharf" isBlocking="false"/>
		<stopFacility id="176" x="1578050.32963947" y="-3922722.86612389" linkRefId="2359" name="Pyrmont Bay Wharf" isBlocking="false"/>
	</transitStops>
	<transitLine id="0" name="607X">
		<transitRoute id="1">
			<transportMode>pt</transportMode>
			<description>607X</description>
			<routeProfile>
				<stop refId="166" arrivalOffset="00:00:00" departureOffset="00:00:00" awaitDeparture="false"/>
				<stop refId="21" arrivalOffset="00:02:00" departureOffset="00:02:00" awaitDeparture="false"/>
			</routeProfile>
			<route>
				<link refId="1223"/>
				<link refId="420"/>
				<link refId="1183"/>
				<link refId="691"/>
				<link refId="1217"/>
				<link refId="2425"/>
				<link refId="1219"/>
				<link refId="791"/>
				<link refId="2231"/>
			</route>
			<departures>
				<departure id="2" departureTime="06:00:00"/>
				<departure id="3" departureTime="06:20:00"/>
				<departure id="4" departureTime="06:40:00"/>
				<departure id="5" departureTime="07:00:00"/>
				<departure id="6" departureTime="07:15:00"/>
				<departure id="7" departureTime="07:30:00"/>
				<departure id="8" departureTime="07:45:00"/>
				<departure id="9" departureTime="08:00:00"/>
				<departure id="10" departureTime="08:15:00"/>
				<departure id="11" departureTime="08:30:00"/>
				<departure id="12" departureTime="08:45:00"/>
				<departure id="13" departureTime="09:00:00"/>
				<departure id="14" departureTime="09:15:00"/>
				<departure id="15" departureTime="09:30:00"/>
				<departure id="16" departureTime="09:45:00"/>
			</departures>
		</transitRoute>
		<transitRoute id="2">
			<transportMode>pt</transportMode>
			<description>607X</description>
			<routeProfile>
				<stop refId="73" arrivalOffset="00:00:00" departureOffset="00:00:00" awaitDeparture="false"/>
				<stop refId="78" arrivalOffset="00:04:00" departureOffset="00:04:00" awaitDeparture="false"/>
			</routeProfile>
			<route>
				<link refId="745"/>
				<link refId="2239"/>
				<link refId="1209"/>
				<link refId="2005"/>
				<link refId="737"/>
				<link refId="689"/>
				<link refId="472"/>
				<link refId="2007"/>
			</route>
			<departures>
				<departure id="2" departureTime="06:00:00"/>
				<departure id="3" departureTime="06:01:00"/>
				<departure id="4" departureTime="06:10:00"/>
				<departure id="5" departureTime="06:20:00"/>
				<departure id="6" departureTime="06:30:00"/>
				<departure id="7" departureTime="06:40:00"/>
				<departure id="8" departureTime="06:50:00"/>
				<departure id="9" departureTime="07:00:00"/>
				<departure id="10" departureTime="07:08:00"/>
				<departure id="11" departureTime="07:15:00"/>
				<departure id="12" departureTime="07:23:00"/>
				<departure id="13" departureTime="07:30:00"/>
				<departure id="14" departureTime="07:38:00"/>
				<departure id="15" departureTime="07:45:00"/>
				<departure id="16" departureTime="07:53:00"/>
				<departure id="17" departureTime="08:00:00"/>
				<departure id="18" departureTime="08:10:00"/>
				<departure id="19" departureTime="08:20:00"/>
				<departure id="20" departureTime="08:30:00"/>
				<departure id="21" departureTime="08:40:00"/>
				<departure id="22" departureTime="08:50:00"/>
				<departure id="23" departureTime="09:00:00"/>
				<departure id="24" departureTime="09:10:00"/>
				<departure id="25" departureTime="09:25:00"/>
				<departure id="26" departureTime="09:40:00"/>
				<departure id="27" departureTime="09:55:00"/>
			</departures>
		</transitRoute>
	</transitLine>
	<transitLine id="1" name="610X">
		<transitRoute id="1">
			<transportMode>pt</transportMode>
			<description>610X</description>
			<routeProfile>
				<stop refId="166" arrivalOffset="00:00:00" departureOffset="00:00:00" awaitDeparture="false"/>
				<stop refId="21" arrivalOffset="00:02:00" departureOffset="00:02:00" awaitDeparture="false"/>
			</routeProfile>
			<route>
				<link refId="1223"/>
				<link refId="420"/>
				<link refId="1183"/>
				<link refId="691"/>
				<link refId="1217"/>
				<link refId="2425"/>
				<link refId="1219"/>
				<link refId="791"/>
				<link refId="2231"/>
			</route>
			<departures>
				<departure id="2" departureTime="06:00:00"/>
				<departure id="3" departureTime="06:10:00"/>
				<departure id="4" departureTime="06:20:00"/>
				<departure id="5" departureTime="06:30:00"/>
				<departure id="6" departureTime="06:40:00"/>
				<departure id="7" departureTime="06:50:00"/>
				<departure id="8" departureTime="07:00:00"/>
				<departure id="9" departureTime="07:10:00"/>
				<departure id="10" departureTime="07:20:00"/>
				<departure id="11" departureTime="07:30:00"/>
				<departure id="12" departureTime="07:40:00"/>
				<departure id="13" departureTime="07:50:00"/>
				<departure id="14" departureTime="08:00:00"/>
				<departure id="15" departureTime="08:10:00"/>
				<departure id="16" departureTime="08:20:00"/>
				<departure id="17" departureTime="08:30:00"/>
				<departure id="18" departureTime="08:40:00"/>
				<departure id="19" departureTime="08:50:00"/>
				<departure id="20" departureTime="09:00:00"/>
				<departure id="21" departureTime="09:10:00"/>
				<departure id="22" departureTime="09:20:00"/>
				<departure id="23" departureTime="09:30:00"/>
				<departure id="24" departureTime="09:40:00"/>
				<departure id="25" departureTime="09:50:00"/>
			</departures>
		</transitRoute>
		<transitRoute id="2">
			<transportMode>pt</transportMode>
			<description>610X</description>
			<routeProfile>
				<stop refId="73" arrivalOffset="00:00:00" departureOffset="00:00:00" awaitDeparture="false"/>
				<stop refId="78" arrivalOffset="00:04:00" departureOffset="00:04:00" awaitDeparture="false"/>
			</routeProfile>
			<route>
				<link refId="745"/>
				<link refId="2239"/>
				<link refId="1209"/>
				<link refId="2005"/>
				<link refId="737"/>
				<link refId="689"/>
				<link refId="472"/>
				<link refId="2007"/>
			</route>
			<departures>
				<departure id="2" departureTime="06:00:00"/>
				<departure id="3" departureTime="06:04:00"/>
				<departure id="4" departureTime="06:08:00"/>
				<departure id="5" departureTime="06:11:00"/>
				<departure id="6" departureTime="06:12:00"/>
				<departure id="7" departureTime="06:16:00"/>
				<departure id="8" departureTime="06:20:00"/>
				<departure id="9" departureTime="06:24:00"/>
				<departure id="10" departureTime="06:28:00"/>
				<departure id="11" departureTime="06:32:00"/>
				<departure id="12" departureTime="06:36:00"/>
				<departure id="13" departureTime="06:40:00"/>
				<departure id="14" departureTime="06:44:00"/>
				<departure id="15" departureTime="06:48:00"/>
				<departure id="16" departureTime="06:52:00"/>
				<departure id="17" departureTime="06:56:00"/>
				<departure id="18" departureTime="07:00:00"/>
				<departure id="19" departureTime="07:04:00"/>
				<departure id="20" departureTime="07:08:00"/>
				<departure id="21" departureTime="07:12:00"/>
				<departure id="22" departureTime="07:16:00"/>
				<departure id="23" departureTime="07:20:00"/>
				<departure id="24" departureTime="07:24:00"/>
				<departure id="25" departureTime="07:28:00"/>
				<departure id="26" departureTime="07:32:00"/>
				<departure id="27" departureTime="07:36:00"/>
				<departure id="28" departureTime="07:40:00"/>
				<departure id="29" departureTime="07:44:00"/>
				<departure id="30" departureTime="07:48:00"/>
				<departure id="31" departureTime="07:52:00"/>
				<departure id="32" departureTime="07:56:00"/>
				<departure id="33" departureTime="08:00:00"/>
				<departure id="34" departureTime="08:04:00"/>
				<departure id="35" departureTime="08:08:00"/>
				<departure id="36" departureTime="08:12:00"/>
				<departure id="37" departureTime="08:16:00"/>
				<departure id="38" departureTime="08:20:00"/>
				<departure id="39" departureTime="08:24:00"/>
				<departure id="40" departureTime="08:28:00"/>
				<departure id="41" departureTime="08:32:00"/>
				<departure id="42" departureTime="08:36:00"/>
				<departure id="43" departureTime="08:40:00"/>
				<departure id="44" departureTime="08:44:00"/>
				<departure id="45" departureTime="08:48:00"/>
				<departure id="46" departureTime="08:54:00"/>
				<departure id="47" departureTime="09:00:00"/>
				<departure id="48" departureTime="09:06:00"/>
				<departure id="49" departureTime="09:12:00"/>
				<departure id="50" departureTime="09:18:00"/>
				<departure id="51" departureTime="09:24:00"/>
				<departure id="52" departureTime="09:30:00"/>
				<departure id="53" departureTime="09:40:00"/>
				<departure id="54" departureTime="09:50:00"/>
			</departures>
		</transitRoute>
	</transitLine>
	<transitLine id="2" name="252">
		<transitRoute id="1">
			<transportMode>pt</transportMode>
			<description>252</description>
			<routeProfile>
				<stop refId="23" arrivalOffset="00:00:00" departureOffset="00:00:00" awaitDeparture="false"/>
				<stop refId="13" arrivalOffset="00:04:00" departureOffset="00:04:00" awaitDeparture="false"/>
			</routeProfile>
			<route>
				<link refId="1187"/>
				<link refId="581"/>
				<link refId="2009"/>
				<link refId="1181"/>
				<link refId="408"/>
				<link refId="406"/>
				<link refId="1177"/>
				<link refId="1831"/>
				<link refId="1175"/>
				<link refId="745"/>
				<link refId="814"/>
				<link refId="2278"/>
				<link refId="2544"/>
				<link refId="2252"/>
				<link refId="2282"/>
				<link refId="916"/>
				<link refId="515"/>
				<link refId="499"/>
				<link refId="2028"/>
				<link refId="1373"/>
			</route>
			<departures>
				<departure id="2" departureTime="06:00:00"/>
			</departures>
		</transitRoute>
		<transitRoute id="2">
			<transportMode>pt</transportMode>
			<description>252</description>
			<routeProfile>
				<stop refId="23" arrivalOffset="00:00:00" departureOffset="00:00:00" awaitDeparture="false"/>
				<stop refId="13" arrivalOffset="00:06:00" departureOffset="00:06:00" awaitDeparture="false"/>
			</routeProfile>
			<route>
				<link refId="1187"/>
				<link refId="581"/>
				<link refId="2009"/>
				<link refId="1181"/>
				<link refId="408"/>
				<link refId="406"/>
				<link refId="1177"/>
				<link refId="1831"/>
				<link refId="1175"/>
				<link refId="745"/>
				<link refId="814"/>
				<link refId="2278"/>
				<link refId="2544"/>
				<link refId="2252"/>
				<link refId="2282"/>
				<link refId="916"/>
				<link refId="515"/>
				<link refId="499"/>
				<link refId="2028"/>
				<link refId="1373"/>
			</route>
			<departures>
				<departure id="2" departureTime="09:18:00"/>
				<departure id="3" departureTime="09:46:00"/>
			</departures>
		</transitRoute>
		<transitRoute id="3">
			<transportMode>pt</transportMode>
			<description>252</description>
			<routeProfile>
				<stop refId="23" arrivalOffset="00:00:00" departureOffset="00:00:00" awaitDeparture="false"/>
				<stop refId="13" arrivalOffset="00:09:00" departureOffset="00:09:00" awaitDeparture="false"/>
			</routeProfile>
			<route>
				<link refId="1187"/>
				<link refId="581"/>
				<link refId="2009"/>
				<link refId="1181"/>
				<link refId="408"/>
				<link refId="406"/>
				<link refId="1177"/>
				<link refId="1831"/>
				<link refId="1175"/>
				<link refId="745"/>
				<link refId="814"/>
				<link refId="2278"/>
				<link refId="2544"/>
				<link refId="2252"/>
				<link refId="2282"/>
				<link refId="916"/>
				<link refId="515"/>
				<link refId="499"/>
				<link refId="2028"/>
				<link refId="1373"/>
			</route>
			<departures>
				<departure id="2" departureTime="08:17:00"/>
			</departures>
		</transitRoute>
		<transitRoute id="4">
			<transportMode>pt</transportMode>
			<description>252</description>
			<routeProfile>
				<stop refId="24" arrivalOffset="00:00:00" departureOffset="00:00:00" awaitDeparture="false"/>
				<stop refId="20" arrivalOffset="00:05:00" departureOffset="00:05:00" awaitDeparture="false"/>
				<stop refId="100" arrivalOffset="00:08:00" departureOffset="00:08:00" awaitDeparture="false"/>
			</routeProfile>
			<route>
				<link refId="1231"/>
				<link refId="915"/>
				<link refId="2656"/>
				<link refId="948"/>
				<link refId="646"/>
				<link refId="1800"/>
				<link refId="1366"/>
				<link refId="1557"/>
				<link refId="911"/>
				<link refId="1359"/>
				<link refId="671"/>
				<link refId="420"/>
				<link refId="1183"/>
				<link refId="691"/>
				<link refId="1217"/>
				<link refId="2425"/>
				<link refId="1219"/>
			</route>
			<departures>
				<departure id="2" departureTime="09:06:00"/>
				<departure id="3" departureTime="09:36:00"/>
			</departures>
		</transitRoute>
		<transitRoute id="5">
			<transportMode>pt</transportMode>
			<description>252</description>
			<routeProfile>
				<stop refId="24" arrivalOffset="00:00:00" departureOffset="00:00:00" awaitDeparture="false"/>
				<stop refId="20" arrivalOffset="00:03:00" departureOffset="00:03:00" awaitDeparture="false"/>
				<stop refId="100" arrivalOffset="00:05:00" departureOffset="00:05:00" awaitDeparture="false"/>
			</routeProfile>
			<route>
				<link refId="1231"/>
				<link refId="915"/>
				<link refId="2656"/>
				<link refId="948"/>
				<link refId="646"/>
				<link refId="1800"/>
				<link refId="1366"/>
				<link refId="1557"/>
				<link refId="911"/>
				<link refId="1359"/>
				<link refId="671"/>
				<link refId="420"/>
				<link refId="1183"/>
				<link refId="691"/>
				<link refId="1217"/>
				<link refId="2425"/>
				<link refId="1219"/>
			</route>
			<departures>
				<departure id="2" departureTime="06:48:00"/>
			</departures>
		</transitRoute>
		<transitRoute id="6">
			<transportMode>pt</transportMode>
			<description>252</description>
			<routeProfile>
				<stop refId="23" arrivalOffset="00:00:00" departureOffset="00:00:00" awaitDeparture="false"/>
				<stop refId="13" arrivalOffset="00:07:00" departureOffset="00:07:00" awaitDeparture="false"/>
			</routeProfile>
			<route>
				<link refId="1187"/>
				<link refId="581"/>
				<link refId="2009"/>
				<link refId="1181"/>
				<link refId="408"/>
				<link refId="406"/>
				<link refId="1177"/>
				<link refId="1831"/>
				<link refId="1175"/>
				<link refId="745"/>
				<link refId="814"/>
				<link refId="2278"/>
				<link refId="2544"/>
				<link refId="2252"/>
				<link refId="2282"/>
				<link refId="916"/>
				<link refId="515"/>
				<link refId="499"/>
				<link refId="2028"/>
				<link refId="1373"/>
			</route>
			<departures>
				<departure id="2" departureTime="08:57:00"/>
			</departures>
		</transitRoute>
	</transitLine>
	<transitLine id="3" name="261">
		<transitRoute id="1">
			<transportMode>pt</transportMode>
			<description>261</description>
			<routeProfile>
				<stop refId="23" arrivalOffset="00:00:00" departureOffset="00:00:00" awaitDeparture="false"/>
				<stop refId="13" arrivalOffset="00:05:00" departureOffset="00:05:00" awaitDeparture="false"/>
			</routeProfile>
			<route>
				<link refId="1187"/>
				<link refId="581"/>
				<link refId="2009"/>
				<link refId="1181"/>
				<link refId="408"/>
				<link refId="406"/>
				<link refId="1177"/>
				<link refId="1831"/>
				<link refId="1175"/>
				<link refId="745"/>
				<link refId="814"/>
				<link refId="2278"/>
				<link refId="2544"/>
				<link refId="2252"/>
				<link refId="2282"/>
				<link refId="916"/>
				<link refId="515"/>
				<link refId="499"/>
				<link refId="2028"/>
				<link refId="1373"/>
			</route>
			<departures>
				<departure id="2" departureTime="06:14:00"/>
				<departure id="3" departureTime="06:34:00"/>
				<departure id="4" departureTime="06:54:00"/>
			</departures>
		</transitRoute>
		<transitRoute id="2">
			<transportMode>pt</transportMode>
			<description>261</description>
			<routeProfile>
				<stop refId="23" arrivalOffset="00:00:00" departureOffset="00:00:00" awaitDeparture="false"/>
				<stop refId="13" arrivalOffset="00:06:00" departureOffset="00:06:00" awaitDeparture="false"/>
			</routeProfile>
			<route>
				<link refId="1187"/>
				<link refId="581"/>
				<link refId="2009"/>
				<link refId="1181"/>
				<link refId="408"/>
				<link refId="406"/>
				<link refId="1177"/>
				<link refId="1831"/>
				<link refId="1175"/>
				<link refId="745"/>
				<link refId="814"/>
				<link refId="2278"/>
				<link refId="2544"/>
				<link refId="2252"/>
				<link refId="2282"/>
				<link refId="916"/>
				<link refId="515"/>
				<link refId="499"/>
				<link refId="2028"/>
				<link refId="1373"/>
			</route>
			<departures>
				<departure id="2" departureTime="09:22:00"/>
			</departures>
		</transitRoute>
		<transitRoute id="3">
			<transportMode>pt</transportMode>
			<description>261</description>
			<routeProfile>
				<stop refId="23" arrivalOffset="00:00:00" departureOffset="00:00:00" awaitDeparture="false"/>
				<stop refId="13" arrivalOffset="00:09:00" departureOffset="00:09:00" awaitDeparture="false"/>
			</routeProfile>
			<route>
				<link refId="1187"/>
				<link refId="581"/>
				<link refId="2009"/>
				<link refId="1181"/>
				<link refId="408"/>
				<link refId="406"/>
				<link refId="1177"/>
				<link refId="1831"/>
				<link refId="1175"/>
				<link refId="745"/>
				<link refId="814"/>
				<link refId="2278"/>
				<link refId="2544"/>
				<link refId="2252"/>
				<link refId="2282"/>
				<link refId="916"/>
				<link refId="515"/>
				<link refId="499"/>
				<link refId="2028"/>
				<link refId="1373"/>
			</route>
			<departures>
				<departure id="2" departureTime="07:54:00"/>
				<departure id="3" departureTime="08:14:00"/>
				<departure id="4" departureTime="08:49:00"/>
			</departures>
		</transitRoute>
		<transitRoute id="4">
			<transportMode>pt</transportMode>
			<description>261</description>
			<routeProfile>
				<stop refId="24" arrivalOffset="00:00:00" departureOffset="00:00:00" awaitDeparture="false"/>
				<stop refId="20" arrivalOffset="00:05:00" departureOffset="00:05:00" awaitDeparture="false"/>
				<stop refId="100" arrivalOffset="00:08:00" departureOffset="00:08:00" awaitDeparture="false"/>
			</routeProfile>
			<route>
				<link refId="1231"/>
				<link refId="915"/>
				<link refId="2656"/>
				<link refId="948"/>
				<link refId="646"/>
				<link refId="1800"/>
				<link refId="1366"/>
				<link refId="1557"/>
				<link refId="911"/>
				<link refId="1359"/>
				<link refId="671"/>
				<link refId="420"/>
				<link refId="1183"/>
				<link refId="691"/>
				<link refId="1217"/>
				<link refId="2425"/>
				<link refId="1219"/>
			</route>
			<departures>
				<departure id="2" departureTime="08:22:00"/>
				<departure id="3" departureTime="09:09:00"/>
			</departures>
		</transitRoute>
		<transitRoute id="5">
			<transportMode>pt</transportMode>
			<description>261</description>
			<routeProfile>
				<stop refId="24" arrivalOffset="00:00:00" departureOffset="00:00:00" awaitDeparture="false"/>
				<stop refId="20" arrivalOffset="00:04:00" departureOffset="00:04:00" awaitDeparture="false"/>
				<stop refId="100" arrivalOffset="00:06:00" departureOffset="00:06:00" awaitDeparture="false"/>
			</routeProfile>
			<route>
				<link refId="1231"/>
				<link refId="915"/>
				<link refId="2656"/>
				<link refId="948"/>
				<link refId="646"/>
				<link refId="1800"/>
				<link refId="1366"/>
				<link refId="1557"/>
				<link refId="911"/>
				<link refId="1359"/>
				<link refId="671"/>
				<link refId="420"/>
				<link refId="1183"/>
				<link refId="691"/>
				<link refId="1217"/>
				<link refId="2425"/>
				<link refId="1219"/>
			</route>
			<departures>
				<departure id="2" departureTime="07:22:00"/>
				<departure id="3" departureTime="07:53:00"/>
			</departures>
		</transitRoute>
		<transitRoute id="6">
			<transportMode>pt</transportMode>
			<description>261</description>
			<routeProfile>
				<stop refId="23" arrivalOffset="00:00:00" departureOffset="00:00:00" awaitDeparture="false"/>
				<stop refId="13" arrivalOffset="00:07:00" departureOffset="00:07:00" awaitDeparture="false"/>
			</routeProfile>
			<route>
				<link refId="1187"/>
				<link refId="581"/>
				<link refId="2009"/>
				<link refId="1181"/>
				<link refId="408"/>
				<link refId="406"/>
				<link refId="1177"/>
				<link refId="1831"/>
				<link refId="1175"/>
				<link refId="745"/>
				<link refId="814"/>
				<link refId="2278"/>
				<link refId="2544"/>
				<link refId="2252"/>
				<link refId="2282"/>
				<link refId="916"/>
				<link refId="515"/>
				<link refId="499"/>
				<link refId="2028"/>
				<link refId="1373"/>
			</route>
			<departures>
				<departure id="2" departureTime="07:14:00"/>
				<departure id="3" departureTime="07:34:00"/>
			</departures>
		</transitRoute>
	</transitLine>
	<transitLine id="4" name="288">
		<transitRoute id="1">
			<transportMode>pt</transportMode>
			<description>288</description>
			<routeProfile>
				<stop refId="23" arrivalOffset="00:00:00" departureOffset="00:00:00" awaitDeparture="false"/>
				<stop refId="58" arrivalOffset="00:06:00" departureOffset="00:06:00" awaitDeparture="false"/>
			</routeProfile>
			<route>
				<link refId="1187"/>
				<link refId="581"/>
				<link refId="2238"/>
				<link refId="1470"/>
				<link refId="1462"/>
				<link refId="1927"/>
				<link refId="637"/>
				<link refId="1454"/>
				<link refId="724"/>
			</route>
			<departures>
				<departure id="2" departureTime="07:40:00"/>
				<departure id="3" departureTime="07:42:00"/>
				<departure id="4" departureTime="07:53:00"/>
				<departure id="5" departureTime="08:03:00"/>
				<departure id="6" departureTime="08:10:00"/>
				<departure id="7" departureTime="08:12:00"/>
				<departure id="8" departureTime="08:15:00"/>
				<departure id="9" departureTime="08:22:00"/>
				<departure id="10" departureTime="08:32:00"/>
				<departure id="11" departureTime="08:33:00"/>
			</departures>
		</transitRoute>
		<transitRoute id="2">
			<transportMode>pt</transportMode>
			<description>288</description>
			<routeProfile>
				<stop refId="23" arrivalOffset="00:00:00" departureOffset="00:00:00" awaitDeparture="false"/>
				<stop refId="58" arrivalOffset="00:05:00" departureOffset="00:05:00" awaitDeparture="false"/>
			</routeProfile>
			<route>
				<link refId="1187"/>
				<link refId="581"/>
				<link refId="2238"/>
				<link refId="1470"/>
				<link refId="1462"/>
				<link refId="1927"/>
				<link refId="637"/>
				<link refId="1454"/>
				<link refId="724"/>
			</route>
			<departures>
				<departure id="2" departureTime="07:10:00"/>
				<departure id="3" departureTime="07:16:00"/>
				<departure id="4" departureTime="07:22:00"/>
				<departure id="5" departureTime="07:29:00"/>
				<departure id="6" departureTime="07:32:00"/>
				<departure id="7" departureTime="07:42:00"/>
				<departure id="8" departureTime="08:47:00"/>
				<departure id="9" departureTime="09:02:00"/>
				<departure id="10" departureTime="09:17:00"/>
				<departure id="11" departureTime="09:28:00"/>
				<departure id="12" departureTime="09:42:00"/>
				<departure id="13" departureTime="09:57:00"/>
			</departures>
		</transitRoute>
		<transitRoute id="3">
			<transportMode>pt</transportMode>
			<description>288</description>
			<routeProfile>
				<stop refId="105" arrivalOffset="00:00:00" departureOffset="00:00:00" awaitDeparture="false"/>
				<stop refId="20" arrivalOffset="00:02:00" departureOffset="00:02:00" awaitDeparture="false"/>
				<stop refId="100" arrivalOffset="00:03:00" departureOffset="00:03:00" awaitDeparture="false"/>
			</routeProfile>
			<route>
				<link refId="1212"/>
				<link refId="419"/>
				<link refId="2656"/>
				<link refId="948"/>
				<link refId="646"/>
				<link refId="1800"/>
				<link refId="1366"/>
				<link refId="1557"/>
				<link refId="911"/>
				<link refId="1359"/>
				<link refId="671"/>
				<link refId="420"/>
				<link refId="1183"/>
				<link refId="691"/>
				<link refId="1217"/>
				<link refId="2425"/>
				<link refId="1219"/>
			</route>
			<departures>
				<departure id="2" departureTime="06:12:00"/>
			</departures>
		</transitRoute>
		<transitRoute id="4">
			<transportMode>pt</transportMode>
			<description>288</description>
			<routeProfile>
				<stop refId="105" arrivalOffset="00:00:00" departureOffset="00:00:00" awaitDeparture="false"/>
				<stop refId="20" arrivalOffset="00:03:00" departureOffset="00:03:00" awaitDeparture="false"/>
				<stop refId="100" arrivalOffset="00:04:00" departureOffset="00:04:00" awaitDeparture="false"/>
			</routeProfile>
			<route>
				<link refId="1212"/>
				<link refId="419"/>
				<link refId="2656"/>
				<link refId="948"/>
				<link refId="646"/>
				<link refId="1800"/>
				<link refId="1366"/>
				<link refId="1557"/>
				<link refId="911"/>
				<link refId="1359"/>
				<link refId="671"/>
				<link refId="420"/>
				<link refId="1183"/>
				<link refId="691"/>
				<link refId="1217"/>
				<link refId="2425"/>
				<link refId="1219"/>
			</route>
			<departures>
				<departure id="2" departureTime="06:32:00"/>
				<departure id="3" departureTime="06:52:00"/>
			</departures>
		</transitRoute>
		<transitRoute id="5">
			<transportMode>pt</transportMode>
			<description>288</description>
			<routeProfile>
				<stop refId="105" arrivalOffset="00:00:00" departureOffset="00:00:00" awaitDeparture="false"/>
				<stop refId="20" arrivalOffset="00:05:00" departureOffset="00:05:00" awaitDeparture="false"/>
				<stop refId="100" arrivalOffset="00:07:00" departureOffset="00:07:00" awaitDeparture="false"/>
			</routeProfile>
			<route>
				<link refId="1212"/>
				<link refId="419"/>
				<link refId="2656"/>
				<link refId="948"/>
				<link refId="646"/>
				<link refId="1800"/>
				<link refId="1366"/>
				<link refId="1557"/>
				<link refId="911"/>
				<link refId="1359"/>
				<link refId="671"/>
				<link refId="420"/>
				<link refId="1183"/>
				<link refId="691"/>
				<link refId="1217"/>
				<link refId="2425"/>
				<link refId="1219"/>
			</route>
			<departures>
				<departure id="2" departureTime="08:32:00"/>
				<departure id="3" departureTime="08:52:00"/>
			</departures>
		</transitRoute>
		<transitRoute id="6">
			<transportMode>pt</transportMode>
			<description>288</description>
			<routeProfile>
				<stop refId="105" arrivalOffset="00:00:00" departureOffset="00:00:00" awaitDeparture="false"/>
				<stop refId="20" arrivalOffset="00:04:00" departureOffset="00:04:00" awaitDeparture="false"/>
				<stop refId="100" arrivalOffset="00:06:00" departureOffset="00:06:00" awaitDeparture="false"/>
			</routeProfile>
			<route>
				<link refId="1212"/>
				<link refId="419"/>
				<link refId="2656"/>
				<link refId="948"/>
				<link refId="646"/>
				<link refId="1800"/>
				<link refId="1366"/>
				<link refId="1557"/>
				<link refId="911"/>
				<link refId="1359"/>
				<link refId="671"/>
				<link refId="420"/>
				<link refId="1183"/>
				<link refId="691"/>
				<link refId="1217"/>
				<link refId="2425"/>
				<link refId="1219"/>
			</route>
			<departures>
				<departure id="2" departureTime="09:12:00"/>
				<departure id="3" departureTime="09:32:00"/>
				<departure id="4" departureTime="09:47:00"/>
			</departures>
		</transitRoute>
		<transitRoute id="7">
			<transportMode>pt</transportMode>
			<description>288</description>
			<routeProfile>
				<stop refId="23" arrivalOffset="00:00:00" departureOffset="00:00:00" awaitDeparture="false"/>
				<stop refId="58" arrivalOffset="00:03:00" departureOffset="00:03:00" awaitDeparture="false"/>
			</routeProfile>
			<route>
				<link refId="1187"/>
				<link refId="581"/>
				<link refId="2238"/>
				<link refId="1470"/>
				<link refId="1462"/>
				<link refId="1927"/>
				<link refId="637"/>
				<link refId="1454"/>
				<link refId="724"/>
			</route>
			<departures>
				<departure id="2" departureTime="06:06:00"/>
			</departures>
		</transitRoute>
		<transitRoute id="8">
			<transportMode>pt</transportMode>
			<description>288</description>
			<routeProfile>
				<stop refId="105" arrivalOffset="00:00:00" departureOffset="00:00:00" awaitDeparture="false"/>
				<stop refId="20" arrivalOffset="00:03:00" departureOffset="00:03:00" awaitDeparture="false"/>
				<stop refId="100" arrivalOffset="00:05:00" departureOffset="00:05:00" awaitDeparture="false"/>
			</routeProfile>
			<route>
				<link refId="1212"/>
				<link refId="419"/>
				<link refId="2656"/>
				<link refId="948"/>
				<link refId="646"/>
				<link refId="1800"/>
				<link refId="1366"/>
				<link refId="1557"/>
				<link refId="911"/>
				<link refId="1359"/>
				<link refId="671"/>
				<link refId="420"/>
				<link refId="1183"/>
				<link refId="691"/>
				<link refId="1217"/>
				<link refId="2425"/>
				<link refId="1219"/>
			</route>
			<departures>
				<departure id="2" departureTime="07:12:00"/>
				<departure id="3" departureTime="07:32:00"/>
				<departure id="4" departureTime="07:52:00"/>
				<departure id="5" departureTime="08:12:00"/>
			</departures>
		</transitRoute>
		<transitRoute id="9">
			<transportMode>pt</transportMode>
			<description>288</description>
			<routeProfile>
				<stop refId="23" arrivalOffset="00:00:00" departureOffset="00:00:00" awaitDeparture="false"/>
				<stop refId="58" arrivalOffset="00:04:00" departureOffset="00:04:00" awaitDeparture="false"/>
			</routeProfile>
			<route>
				<link refId="1187"/>
				<link refId="581"/>
				<link refId="2238"/>
				<link refId="1470"/>
				<link refId="1462"/>
				<link refId="1927"/>
				<link refId="637"/>
				<link refId="1454"/>
				<link refId="724"/>
			</route>
			<departures>
				<departure id="2" departureTime="06:00:00"/>
				<departure id="3" departureTime="06:15:00"/>
				<departure id="4" departureTime="06:45:00"/>
				<departure id="5" departureTime="06:48:00"/>
				<departure id="6" departureTime="06:58:00"/>
			</departures>
		</transitRoute>
	</transitLine>
	<transitLine id="5" name="290">
		<transitRoute id="1">
			<transportMode>pt</transportMode>
			<description>290</description>
			<routeProfile>
				<stop refId="105" arrivalOffset="00:00:00" departureOffset="00:00:00" awaitDeparture="false"/>
				<stop refId="20" arrivalOffset="00:02:00" departureOffset="00:02:00" awaitDeparture="false"/>
				<stop refId="100" arrivalOffset="00:03:00" departureOffset="00:03:00" awaitDeparture="false"/>
			</routeProfile>
			<route>
				<link refId="1212"/>
				<link refId="419"/>
				<link refId="2656"/>
				<link refId="948"/>
				<link refId="646"/>
				<link refId="1800"/>
				<link refId="1366"/>
				<link refId="1557"/>
				<link refId="911"/>
				<link refId="1359"/>
				<link refId="671"/>
				<link refId="420"/>
				<link refId="1183"/>
				<link refId="691"/>
				<link refId="1217"/>
				<link refId="2425"/>
				<link refId="1219"/>
			</route>
			<departures>
				<departure id="2" departureTime="06:00:00"/>
			</departures>
		</transitRoute>
	</transitLine>
	<transitLine id="6" name="292">
		<transitRoute id="1">
			<transportMode>pt</transportMode>
			<description>292</description>
			<routeProfile>
				<stop refId="23" arrivalOffset="00:00:00" departureOffset="00:00:00" awaitDeparture="false"/>
				<stop refId="58" arrivalOffset="00:06:00" departureOffset="00:06:00" awaitDeparture="false"/>
			</routeProfile>
			<route>
				<link refId="1187"/>
				<link refId="581"/>
				<link refId="2238"/>
				<link refId="1470"/>
				<link refId="1462"/>
				<link refId="1927"/>
				<link refId="637"/>
				<link refId="1454"/>
				<link refId="724"/>
			</route>
			<departures>
				<departure id="2" departureTime="07:23:00"/>
				<departure id="3" departureTime="07:53:00"/>
				<departure id="4" departureTime="08:03:00"/>
				<departure id="5" departureTime="08:09:00"/>
				<departure id="6" departureTime="08:13:00"/>
				<departure id="7" departureTime="08:21:00"/>
				<departure id="8" departureTime="08:22:00"/>
				<departure id="9" departureTime="08:27:00"/>
				<departure id="10" departureTime="08:44:00"/>
				<departure id="11" departureTime="08:54:00"/>
			</departures>
		</transitRoute>
		<transitRoute id="2">
			<transportMode>pt</transportMode>
			<description>292</description>
			<routeProfile>
				<stop refId="23" arrivalOffset="00:00:00" departureOffset="00:00:00" awaitDeparture="false"/>
				<stop refId="58" arrivalOffset="00:05:00" departureOffset="00:05:00" awaitDeparture="false"/>
			</routeProfile>
			<route>
				<link refId="1187"/>
				<link refId="581"/>
				<link refId="2238"/>
				<link refId="1470"/>
				<link refId="1462"/>
				<link refId="1927"/>
				<link refId="637"/>
				<link refId="1454"/>
				<link refId="724"/>
			</route>
			<departures>
				<departure id="2" departureTime="06:53:00"/>
				<departure id="3" departureTime="06:55:00"/>
				<departure id="4" departureTime="07:28:00"/>
				<departure id="5" departureTime="07:39:00"/>
				<departure id="6" departureTime="08:48:00"/>
				<departure id="7" departureTime="09:15:00"/>
				<departure id="8" departureTime="09:43:00"/>
			</departures>
		</transitRoute>
		<transitRoute id="3">
			<transportMode>pt</transportMode>
			<description>292</description>
			<routeProfile>
				<stop refId="105" arrivalOffset="00:00:00" departureOffset="00:00:00" awaitDeparture="false"/>
				<stop refId="20" arrivalOffset="00:02:00" departureOffset="00:02:00" awaitDeparture="false"/>
				<stop refId="100" arrivalOffset="00:03:00" departureOffset="00:03:00" awaitDeparture="false"/>
			</routeProfile>
			<route>
				<link refId="1212"/>
				<link refId="419"/>
				<link refId="2656"/>
				<link refId="948"/>
				<link refId="646"/>
				<link refId="1800"/>
				<link refId="1366"/>
				<link refId="1557"/>
				<link refId="911"/>
				<link refId="1359"/>
				<link refId="671"/>
				<link refId="420"/>
				<link refId="1183"/>
				<link refId="691"/>
				<link refId="1217"/>
				<link refId="2425"/>
				<link refId="1219"/>
			</route>
			<departures>
				<departure id="2" departureTime="06:28:00"/>
			</departures>
		</transitRoute>
		<transitRoute id="4">
			<transportMode>pt</transportMode>
			<description>292</description>
			<routeProfile>
				<stop refId="105" arrivalOffset="00:00:00" departureOffset="00:00:00" awaitDeparture="false"/>
				<stop refId="20" arrivalOffset="00:04:00" departureOffset="00:04:00" awaitDeparture="false"/>
				<stop refId="100" arrivalOffset="00:06:00" departureOffset="00:06:00" awaitDeparture="false"/>
			</routeProfile>
			<route>
				<link refId="1212"/>
				<link refId="419"/>
				<link refId="2656"/>
				<link refId="948"/>
				<link refId="646"/>
				<link refId="1800"/>
				<link refId="1366"/>
				<link refId="1557"/>
				<link refId="911"/>
				<link refId="1359"/>
				<link refId="671"/>
				<link refId="420"/>
				<link refId="1183"/>
				<link refId="691"/>
				<link refId="1217"/>
				<link refId="2425"/>
				<link refId="1219"/>
			</route>
			<departures>
				<departure id="2" departureTime="09:36:00"/>
			</departures>
		</transitRoute>
		<transitRoute id="5">
			<transportMode>pt</transportMode>
			<description>292</description>
			<routeProfile>
				<stop refId="105" arrivalOffset="00:00:00" departureOffset="00:00:00" awaitDeparture="false"/>
				<stop refId="20" arrivalOffset="00:05:00" departureOffset="00:05:00" awaitDeparture="false"/>
				<stop refId="100" arrivalOffset="00:07:00" departureOffset="00:07:00" awaitDeparture="false"/>
			</routeProfile>
			<route>
				<link refId="1212"/>
				<link refId="419"/>
				<link refId="2656"/>
				<link refId="948"/>
				<link refId="646"/>
				<link refId="1800"/>
				<link refId="1366"/>
				<link refId="1557"/>
				<link refId="911"/>
				<link refId="1359"/>
				<link refId="671"/>
				<link refId="420"/>
				<link refId="1183"/>
				<link refId="691"/>
				<link refId="1217"/>
				<link refId="2425"/>
				<link refId="1219"/>
			</route>
			<departures>
				<departure id="2" departureTime="08:36:00"/>
				<departure id="3" departureTime="09:06:00"/>
			</departures>
		</transitRoute>
		<transitRoute id="6">
			<transportMode>pt</transportMode>
			<description>292</description>
			<routeProfile>
				<stop refId="23" arrivalOffset="00:00:00" departureOffset="00:00:00" awaitDeparture="false"/>
				<stop refId="58" arrivalOffset="00:03:00" departureOffset="00:03:00" awaitDeparture="false"/>
			</routeProfile>
			<route>
				<link refId="1187"/>
				<link refId="581"/>
				<link refId="2238"/>
				<link refId="1470"/>
				<link refId="1462"/>
				<link refId="1927"/>
				<link refId="637"/>
				<link refId="1454"/>
				<link refId="724"/>
			</route>
			<departures>
				<departure id="2" departureTime="06:00:00"/>
			</departures>
		</transitRoute>
		<transitRoute id="7">
			<transportMode>pt</transportMode>
			<description>292</description>
			<routeProfile>
				<stop refId="105" arrivalOffset="00:00:00" departureOffset="00:00:00" awaitDeparture="false"/>
				<stop refId="20" arrivalOffset="00:03:00" departureOffset="00:03:00" awaitDeparture="false"/>
				<stop refId="100" arrivalOffset="00:05:00" departureOffset="00:05:00" awaitDeparture="false"/>
			</routeProfile>
			<route>
				<link refId="1212"/>
				<link refId="419"/>
				<link refId="2656"/>
				<link refId="948"/>
				<link refId="646"/>
				<link refId="1800"/>
				<link refId="1366"/>
				<link refId="1557"/>
				<link refId="911"/>
				<link refId="1359"/>
				<link refId="671"/>
				<link refId="420"/>
				<link refId="1183"/>
				<link refId="691"/>
				<link refId="1217"/>
				<link refId="2425"/>
				<link refId="1219"/>
			</route>
			<departures>
				<departure id="2" departureTime="07:01:00"/>
				<departure id="3" departureTime="07:33:00"/>
				<departure id="4" departureTime="08:03:00"/>
			</departures>
		</transitRoute>
		<transitRoute id="8">
			<transportMode>pt</transportMode>
			<description>292</description>
			<routeProfile>
				<stop refId="23" arrivalOffset="00:00:00" departureOffset="00:00:00" awaitDeparture="false"/>
				<stop refId="58" arrivalOffset="00:04:00" departureOffset="00:04:00" awaitDeparture="false"/>
			</routeProfile>
			<route>
				<link refId="1187"/>
				<link refId="581"/>
				<link refId="2238"/>
				<link refId="1470"/>
				<link refId="1462"/>
				<link refId="1927"/>
				<link refId="637"/>
				<link refId="1454"/>
				<link refId="724"/>
			</route>
			<departures>
				<departure id="2" departureTime="06:00:00"/>
				<departure id="3" departureTime="06:10:00"/>
				<departure id="4" departureTime="06:24:00"/>
				<departure id="5" departureTime="06:35:00"/>
				<departure id="6" departureTime="06:45:00"/>
				<departure id="7" departureTime="07:05:00"/>
			</departures>
		</transitRoute>
	</transitLine>
	<transitLine id="7" name="100">
		<transitRoute id="1">
			<transportMode>pt</transportMode>
			<description>100</description>
			<routeProfile>
				<stop refId="23" arrivalOffset="00:00:00" departureOffset="00:00:00" awaitDeparture="false"/>
				<stop refId="38" arrivalOffset="00:00:00" departureOffset="00:00:00" awaitDeparture="false"/>
				<stop refId="78" arrivalOffset="00:04:00" departureOffset="00:04:00" awaitDeparture="false"/>
			</routeProfile>
			<route>
				<link refId="1187"/>
				<link refId="581"/>
				<link refId="2009"/>
				<link refId="1181"/>
				<link refId="408"/>
				<link refId="406"/>
				<link refId="1177"/>
				<link refId="1831"/>
				<link refId="1175"/>
				<link refId="745"/>
				<link refId="2239"/>
				<link refId="1209"/>
				<link refId="2005"/>
				<link refId="737"/>
				<link refId="689"/>
				<link refId="472"/>
				<link refId="2007"/>
			</route>
			<departures>
				<departure id="2" departureTime="06:00:00"/>
				<departure id="3" departureTime="06:03:00"/>
				<departure id="4" departureTime="06:04:00"/>
			</departures>
		</transitRoute>
		<transitRoute id="2">
			<transportMode>pt</transportMode>
			<description>100</description>
			<routeProfile>
				<stop refId="103" arrivalOffset="00:00:00" departureOffset="00:00:00" awaitDeparture="false"/>
				<stop refId="133" arrivalOffset="00:02:00" departureOffset="00:02:00" awaitDeparture="false"/>
			</routeProfile>
			<route>
				<link refId="1261"/>
				<link refId="1223"/>
				<link refId="420"/>
				<link refId="1183"/>
				<link refId="691"/>
			</route>
			<departures>
				<departure id="2" departureTime="06:00:00"/>
				<departure id="3" departureTime="06:03:00"/>
				<departure id="4" departureTime="06:04:00"/>
				<departure id="5" departureTime="06:11:00"/>
				<departure id="6" departureTime="06:17:00"/>
				<departure id="7" departureTime="06:24:00"/>
				<departure id="8" departureTime="06:31:00"/>
				<departure id="9" departureTime="06:38:00"/>
				<departure id="10" departureTime="06:45:00"/>
				<departure id="11" departureTime="06:53:00"/>
				<departure id="12" departureTime="07:01:00"/>
				<departure id="13" departureTime="07:10:00"/>
				<departure id="14" departureTime="07:17:00"/>
				<departure id="15" departureTime="07:25:00"/>
				<departure id="16" departureTime="07:34:00"/>
				<departure id="17" departureTime="07:42:00"/>
				<departure id="18" departureTime="07:51:00"/>
				<departure id="19" departureTime="08:01:00"/>
				<departure id="20" departureTime="08:11:00"/>
				<departure id="21" departureTime="08:21:00"/>
				<departure id="22" departureTime="08:33:00"/>
				<departure id="23" departureTime="08:44:00"/>
				<departure id="24" departureTime="08:55:00"/>
				<departure id="25" departureTime="09:06:00"/>
				<departure id="26" departureTime="09:17:00"/>
				<departure id="27" departureTime="09:26:00"/>
				<departure id="28" departureTime="09:35:00"/>
				<departure id="29" departureTime="09:43:00"/>
				<departure id="30" departureTime="09:51:00"/>
				<departure id="31" departureTime="09:59:00"/>
			</departures>
		</transitRoute>
		<transitRoute id="3">
			<transportMode>pt</transportMode>
			<description>100</description>
			<routeProfile>
				<stop refId="23" arrivalOffset="00:00:00" departureOffset="00:00:00" awaitDeparture="false"/>
				<stop refId="38" arrivalOffset="00:01:00" departureOffset="00:01:00" awaitDeparture="false"/>
				<stop refId="78" arrivalOffset="00:05:00" departureOffset="00:05:00" awaitDeparture="false"/>
			</routeProfile>
			<route>
				<link refId="1187"/>
				<link refId="581"/>
				<link refId="2009"/>
				<link refId="1181"/>
				<link refId="408"/>
				<link refId="406"/>
				<link refId="1177"/>
				<link refId="1831"/>
				<link refId="1175"/>
				<link refId="745"/>
				<link refId="2239"/>
				<link refId="1209"/>
				<link refId="2005"/>
				<link refId="737"/>
				<link refId="689"/>
				<link refId="472"/>
				<link refId="2007"/>
			</route>
			<departures>
				<departure id="2" departureTime="06:11:00"/>
				<departure id="3" departureTime="06:17:00"/>
				<departure id="4" departureTime="06:24:00"/>
				<departure id="5" departureTime="06:31:00"/>
				<departure id="6" departureTime="06:38:00"/>
			</departures>
		</transitRoute>
		<transitRoute id="4">
			<transportMode>pt</transportMode>
			<description>100</description>
			<routeProfile>
				<stop refId="23" arrivalOffset="00:00:00" departureOffset="00:00:00" awaitDeparture="false"/>
				<stop refId="38" arrivalOffset="00:01:00" departureOffset="00:01:00" awaitDeparture="false"/>
				<stop refId="78" arrivalOffset="00:06:00" departureOffset="00:06:00" awaitDeparture="false"/>
			</routeProfile>
			<route>
				<link refId="1187"/>
				<link refId="581"/>
				<link refId="2009"/>
				<link refId="1181"/>
				<link refId="408"/>
				<link refId="406"/>
				<link refId="1177"/>
				<link refId="1831"/>
				<link refId="1175"/>
				<link refId="745"/>
				<link refId="2239"/>
				<link refId="1209"/>
				<link refId="2005"/>
				<link refId="737"/>
				<link refId="689"/>
				<link refId="472"/>
				<link refId="2007"/>
			</route>
			<departures>
				<departure id="2" departureTime="06:45:00"/>
				<departure id="3" departureTime="06:53:00"/>
				<departure id="4" departureTime="07:01:00"/>
				<departure id="5" departureTime="07:06:00"/>
				<departure id="6" departureTime="07:10:00"/>
				<departure id="7" departureTime="07:13:00"/>
				<departure id="8" departureTime="07:17:00"/>
				<departure id="9" departureTime="07:21:00"/>
				<departure id="10" departureTime="07:25:00"/>
				<departure id="11" departureTime="07:30:00"/>
				<departure id="12" departureTime="07:34:00"/>
				<departure id="13" departureTime="07:38:00"/>
				<departure id="14" departureTime="07:42:00"/>
				<departure id="15" departureTime="07:46:00"/>
				<departure id="16" departureTime="07:51:00"/>
				<departure id="17" departureTime="07:56:00"/>
				<departure id="18" departureTime="08:01:00"/>
				<departure id="19" departureTime="08:06:00"/>
				<departure id="20" departureTime="08:11:00"/>
				<departure id="21" departureTime="08:16:00"/>
				<departure id="22" departureTime="08:21:00"/>
				<departure id="23" departureTime="08:26:00"/>
				<departure id="24" departureTime="08:33:00"/>
				<departure id="25" departureTime="08:39:00"/>
				<departure id="26" departureTime="08:44:00"/>
				<departure id="27" departureTime="08:49:00"/>
				<departure id="28" departureTime="08:55:00"/>
				<departure id="29" departureTime="09:01:00"/>
				<departure id="30" departureTime="09:06:00"/>
				<departure id="31" departureTime="09:12:00"/>
				<departure id="32" departureTime="09:17:00"/>
				<departure id="33" departureTime="09:21:00"/>
				<departure id="34" departureTime="09:26:00"/>
				<departure id="35" departureTime="09:35:00"/>
				<departure id="36" departureTime="09:43:00"/>
				<departure id="37" departureTime="09:51:00"/>
				<departure id="38" departureTime="09:59:00"/>
			</departures>
		</transitRoute>
	</transitLine>
	<transitLine id="8" name="200">
		<transitRoute id="1">
			<transportMode>pt</transportMode>
			<description>200</description>
			<routeProfile>
				<stop refId="37" arrivalOffset="00:00:00" departureOffset="00:00:00" awaitDeparture="false"/>
				<stop refId="36" arrivalOffset="00:01:00" departureOffset="00:01:00" awaitDeparture="false"/>
			</routeProfile>
			<route>
				<link refId="1207"/>
				<link refId="2129"/>
				<link refId="2017"/>
				<link refId="2153"/>
				<link refId="2019"/>
				<link refId="70"/>
			</route>
			<departures>
				<departure id="2" departureTime="07:31:00"/>
				<departure id="3" departureTime="07:51:00"/>
				<departure id="4" departureTime="08:11:00"/>
				<departure id="5" departureTime="08:31:00"/>
				<departure id="6" departureTime="08:51:00"/>
				<departure id="7" departureTime="09:06:00"/>
				<departure id="8" departureTime="09:36:00"/>
			</departures>
		</transitRoute>
		<transitRoute id="2">
			<transportMode>pt</transportMode>
			<description>200</description>
			<routeProfile>
				<stop refId="107" arrivalOffset="00:00:00" departureOffset="00:00:00" awaitDeparture="false"/>
				<stop refId="77" arrivalOffset="00:01:00" departureOffset="00:01:00" awaitDeparture="false"/>
			</routeProfile>
			<route>
				<link refId="2190"/>
				<link refId="1202"/>
				<link refId="71"/>
				<link refId="2020"/>
				<link refId="2154"/>
				<link refId="2018"/>
				<link refId="2130"/>
				<link refId="1208"/>
			</route>
			<departures>
				<departure id="2" departureTime="06:20:00"/>
				<departure id="3" departureTime="06:50:00"/>
				<departure id="4" departureTime="07:05:00"/>
				<departure id="5" departureTime="07:20:00"/>
				<departure id="6" departureTime="07:35:00"/>
				<departure id="7" departureTime="07:50:00"/>
				<departure id="8" departureTime="08:05:00"/>
				<departure id="9" departureTime="08:20:00"/>
				<departure id="10" departureTime="08:35:00"/>
				<departure id="11" departureTime="08:55:00"/>
				<departure id="12" departureTime="09:15:00"/>
				<departure id="13" departureTime="09:35:00"/>
			</departures>
		</transitRoute>
		<transitRoute id="3">
			<transportMode>pt</transportMode>
			<description>200</description>
			<routeProfile>
				<stop refId="37" arrivalOffset="00:00:00" departureOffset="00:00:00" awaitDeparture="false"/>
				<stop refId="36" arrivalOffset="00:00:00" departureOffset="00:00:00" awaitDeparture="false"/>
			</routeProfile>
			<route>
				<link refId="1207"/>
				<link refId="2129"/>
				<link refId="2017"/>
				<link refId="2153"/>
				<link refId="2019"/>
				<link refId="70"/>
			</route>
			<departures>
				<departure id="2" departureTime="06:26:00"/>
				<departure id="3" departureTime="06:56:00"/>
				<departure id="4" departureTime="07:11:00"/>
			</departures>
		</transitRoute>
	</transitLine>
	<transitLine id="9" name="304">
		<transitRoute id="1">
			<transportMode>pt</transportMode>
			<description>304</description>
			<routeProfile>
				<stop refId="99" arrivalOffset="00:00:00" departureOffset="00:00:00" awaitDeparture="false"/>
				<stop refId="26" arrivalOffset="00:02:00" departureOffset="00:02:00" awaitDeparture="false"/>
				<stop refId="28" arrivalOffset="00:04:00" departureOffset="00:04:00" awaitDeparture="false"/>
			</routeProfile>
			<route>
				<link refId="1260"/>
				<link refId="1998"/>
				<link refId="1996"/>
				<link refId="2066"/>
				<link refId="1556"/>
				<link refId="1194"/>
				<link refId="2132"/>
				<link refId="2134"/>
				<link refId="165"/>
				<link refId="822"/>
				<link refId="83"/>
				<link refId="1522"/>
				<link refId="2249"/>
				<link refId="232"/>
				<link refId="1433"/>
				<link refId="2643"/>
				<link refId="1839"/>
				<link refId="607"/>
			</route>
			<departures>
				<departure id="2" departureTime="06:00:00"/>
				<departure id="3" departureTime="06:01:00"/>
				<departure id="4" departureTime="06:10:00"/>
				<departure id="5" departureTime="06:11:00"/>
				<departure id="6" departureTime="06:30:00"/>
			</departures>
		</transitRoute>
		<transitRoute id="2">
			<transportMode>pt</transportMode>
			<description>304</description>
			<routeProfile>
				<stop refId="5" arrivalOffset="00:00:00" departureOffset="00:00:00" awaitDeparture="false"/>
				<stop refId="31" arrivalOffset="00:01:00" departureOffset="00:01:00" awaitDeparture="false"/>
				<stop refId="30" arrivalOffset="00:03:00" departureOffset="00:03:00" awaitDeparture="false"/>
				<stop refId="69" arrivalOffset="00:05:00" departureOffset="00:05:00" awaitDeparture="false"/>
			</routeProfile>
			<route>
				<link refId="2063"/>
				<link refId="1681"/>
				<link refId="1263"/>
				<link refId="601"/>
				<link refId="1635"/>
				<link refId="1289"/>
				<link refId="361"/>
				<link refId="1196"/>
				<link refId="1190"/>
				<link refId="608"/>
				<link refId="1840"/>
				<link refId="2644"/>
				<link refId="1434"/>
				<link refId="233"/>
				<link refId="2250"/>
				<link refId="1521"/>
				<link refId="82"/>
				<link refId="821"/>
				<link refId="164"/>
				<link refId="2133"/>
				<link refId="2131"/>
				<link refId="1193"/>
				<link refId="1555"/>
				<link refId="2065"/>
				<link refId="1995"/>
				<link refId="1997"/>
				<link refId="1259"/>
				<link refId="1255"/>
			</route>
			<departures>
				<departure id="2" departureTime="06:11:00"/>
				<departure id="3" departureTime="06:28:00"/>
				<departure id="4" departureTime="06:46:00"/>
				<departure id="5" departureTime="06:47:00"/>
				<departure id="6" departureTime="07:06:00"/>
				<departure id="7" departureTime="07:23:00"/>
				<departure id="8" departureTime="07:32:00"/>
				<departure id="9" departureTime="07:42:00"/>
				<departure id="10" departureTime="07:50:00"/>
			</departures>
		</transitRoute>
		<transitRoute id="3">
			<transportMode>pt</transportMode>
			<description>304</description>
			<routeProfile>
				<stop refId="5" arrivalOffset="00:00:00" departureOffset="00:00:00" awaitDeparture="false"/>
				<stop refId="31" arrivalOffset="00:02:00" departureOffset="00:02:00" awaitDeparture="false"/>
				<stop refId="30" arrivalOffset="00:05:00" departureOffset="00:05:00" awaitDeparture="false"/>
				<stop refId="69" arrivalOffset="00:07:00" departureOffset="00:07:00" awaitDeparture="false"/>
			</routeProfile>
			<route>
				<link refId="2063"/>
				<link refId="1681"/>
				<link refId="1263"/>
				<link refId="601"/>
				<link refId="1635"/>
				<link refId="1289"/>
				<link refId="361"/>
				<link refId="1196"/>
				<link refId="1190"/>
				<link refId="608"/>
				<link refId="1840"/>
				<link refId="2644"/>
				<link refId="1434"/>
				<link refId="233"/>
				<link refId="2250"/>
				<link refId="1521"/>
				<link refId="82"/>
				<link refId="821"/>
				<link refId="164"/>
				<link refId="2133"/>
				<link refId="2131"/>
				<link refId="1193"/>
				<link refId="1555"/>
				<link refId="2065"/>
				<link refId="1995"/>
				<link refId="1997"/>
				<link refId="1259"/>
				<link refId="1255"/>
			</route>
			<departures>
				<departure id="2" departureTime="07:56:00"/>
				<departure id="3" departureTime="08:06:00"/>
				<departure id="4" departureTime="08:16:00"/>
				<departure id="5" departureTime="08:25:00"/>
				<departure id="6" departureTime="08:35:00"/>
				<departure id="7" departureTime="08:45:00"/>
				<departure id="8" departureTime="08:55:00"/>
				<departure id="9" departureTime="09:05:00"/>
				<departure id="10" departureTime="09:15:00"/>
			</departures>
		</transitRoute>
		<transitRoute id="4">
			<transportMode>pt</transportMode>
			<description>304</description>
			<routeProfile>
				<stop refId="5" arrivalOffset="00:00:00" departureOffset="00:00:00" awaitDeparture="false"/>
				<stop refId="31" arrivalOffset="00:02:00" departureOffset="00:02:00" awaitDeparture="false"/>
				<stop refId="30" arrivalOffset="00:04:00" departureOffset="00:04:00" awaitDeparture="false"/>
				<stop refId="69" arrivalOffset="00:06:00" departureOffset="00:06:00" awaitDeparture="false"/>
			</routeProfile>
			<route>
				<link refId="2063"/>
				<link refId="1681"/>
				<link refId="1263"/>
				<link refId="601"/>
				<link refId="1635"/>
				<link refId="1289"/>
				<link refId="361"/>
				<link refId="1196"/>
				<link refId="1190"/>
				<link refId="608"/>
				<link refId="1840"/>
				<link refId="2644"/>
				<link refId="1434"/>
				<link refId="233"/>
				<link refId="2250"/>
				<link refId="1521"/>
				<link refId="82"/>
				<link refId="821"/>
				<link refId="164"/>
				<link refId="2133"/>
				<link refId="2131"/>
				<link refId="1193"/>
				<link refId="1555"/>
				<link refId="2065"/>
				<link refId="1995"/>
				<link refId="1997"/>
				<link refId="1259"/>
				<link refId="1255"/>
			</route>
			<departures>
				<departure id="2" departureTime="07:03:00"/>
				<departure id="3" departureTime="07:20:00"/>
				<departure id="4" departureTime="07:29:00"/>
				<departure id="5" departureTime="07:39:00"/>
				<departure id="6" departureTime="07:47:00"/>
				<departure id="7" departureTime="07:58:00"/>
				<departure id="8" departureTime="08:08:00"/>
				<departure id="9" departureTime="08:18:00"/>
				<departure id="10" departureTime="08:27:00"/>
				<departure id="11" departureTime="08:36:00"/>
				<departure id="12" departureTime="08:46:00"/>
				<departure id="13" departureTime="08:56:00"/>
				<departure id="14" departureTime="09:06:00"/>
				<departure id="15" departureTime="09:16:00"/>
				<departure id="16" departureTime="09:25:00"/>
				<departure id="17" departureTime="09:35:00"/>
				<departure id="18" departureTime="09:45:00"/>
				<departure id="19" departureTime="09:55:00"/>
			</departures>
		</transitRoute>
		<transitRoute id="5">
[...]
				<stop refId="39" arrivalOffset="00:08:30" departureOffset="00:09:00" awaitDeparture="false"/>
			</routeProfile>
			<route>
				<link refId="1111"/>
				<link refId="268"/>
				<link refId="1895"/>
				<link refId="1893"/>
				<link refId="2205"/>
				<link refId="1501"/>
				<link refId="1095"/>
				<link refId="2203"/>
				<link refId="2169"/>
				<link refId="308"/>
				<link refId="1415"/>
				<link refId="1107"/>
				<link refId="2165"/>
				<link refId="2163"/>
			</route>
			<departures>
				<departure id="2" departureTime="07:53:01"/>
				<departure id="3" departureTime="08:53:01"/>
			</departures>
		</transitRoute>
		<transitRoute id="6">
			<transportMode>pt</transportMode>
			<description>T3</description>
			<routeProfile>
				<stop refId="49" arrivalOffset="00:00:00" departureOffset="00:00:30" awaitDeparture="false"/>
				<stop refId="112" arrivalOffset="00:02:36" departureOffset="00:03:06" awaitDeparture="false"/>
				<stop refId="117" arrivalOffset="00:05:36" departureOffset="00:06:06" awaitDeparture="false"/>
				<stop refId="116" arrivalOffset="00:08:36" departureOffset="00:09:06" awaitDeparture="false"/>
			</routeProfile>
			<route>
				<link refId="711"/>
				<link refId="1389"/>
				<link refId="2177"/>
				<link refId="1109"/>
				<link refId="306"/>
				<link refId="2171"/>
				<link refId="2207"/>
				<link refId="1417"/>
				<link refId="1097"/>
				<link refId="2209"/>
				<link refId="1257"/>
				<link refId="1899"/>
				<link refId="1897"/>
				<link refId="274"/>
			</route>
			<departures>
				<departure id="2" departureTime="06:00:42"/>
				<departure id="3" departureTime="06:12:01"/>
				<departure id="4" departureTime="06:20:01"/>
				<departure id="5" departureTime="06:27:01"/>
				<departure id="6" departureTime="06:42:01"/>
				<departure id="7" departureTime="06:50:01"/>
				<departure id="8" departureTime="06:57:01"/>
				<departure id="9" departureTime="07:12:01"/>
				<departure id="10" departureTime="07:27:01"/>
				<departure id="11" departureTime="07:42:01"/>
				<departure id="12" departureTime="07:48:01"/>
				<departure id="13" departureTime="07:54:01"/>
				<departure id="14" departureTime="07:57:01"/>
				<departure id="15" departureTime="08:09:01"/>
				<departure id="16" departureTime="08:12:01"/>
				<departure id="17" departureTime="08:24:01"/>
				<departure id="18" departureTime="08:27:01"/>
				<departure id="19" departureTime="08:39:01"/>
				<departure id="20" departureTime="08:42:01"/>
				<departure id="21" departureTime="08:48:01"/>
				<departure id="22" departureTime="08:54:01"/>
				<departure id="23" departureTime="09:03:01"/>
				<departure id="24" departureTime="09:09:01"/>
				<departure id="25" departureTime="09:15:01"/>
				<departure id="26" departureTime="09:19:01"/>
				<departure id="27" departureTime="09:24:01"/>
				<departure id="28" departureTime="09:30:01"/>
				<departure id="29" departureTime="09:33:01"/>
				<departure id="30" departureTime="09:39:01"/>
				<departure id="31" departureTime="09:45:01"/>
				<departure id="32" departureTime="09:54:01"/>
			</departures>
		</transitRoute>
		<transitRoute id="7">
			<transportMode>pt</transportMode>
			<description>T3</description>
			<routeProfile>
				<stop refId="114" arrivalOffset="00:00:00" departureOffset="00:00:30" awaitDeparture="false"/>
				<stop refId="0" arrivalOffset="00:03:30" departureOffset="00:04:00" awaitDeparture="false"/>
				<stop refId="106" arrivalOffset="00:05:48" departureOffset="00:06:18" awaitDeparture="false"/>
				<stop refId="39" arrivalOffset="00:08:18" departureOffset="00:08:48" awaitDeparture="false"/>
			</routeProfile>
			<route>
				<link refId="1111"/>
				<link refId="268"/>
				<link refId="1895"/>
				<link refId="1893"/>
				<link refId="2205"/>
				<link refId="1501"/>
				<link refId="1095"/>
				<link refId="2203"/>
				<link refId="2169"/>
				<link refId="308"/>
				<link refId="1415"/>
				<link refId="1107"/>
				<link refId="2165"/>
				<link refId="2163"/>
			</route>
			<departures>
				<departure id="2" departureTime="08:08:01"/>
				<departure id="3" departureTime="08:38:01"/>
			</departures>
		</transitRoute>
	</transitLine>
	<transitLine id="66" name="T4">
		<transitRoute id="1">
			<transportMode>pt</transportMode>
			<description>T4</description>
			<routeProfile>
				<stop refId="108" arrivalOffset="00:00:00" departureOffset="00:01:00" awaitDeparture="false"/>
				<stop refId="46" arrivalOffset="00:02:30" departureOffset="00:03:30" awaitDeparture="false"/>
			</routeProfile>
			<route>
				<link refId="1269"/>
				<link refId="1115"/>
				<link refId="1387"/>
				<link refId="316"/>
				<link refId="1419"/>
				<link refId="673"/>
				<link refId="282"/>
				<link refId="278"/>
				<link refId="2191"/>
			</route>
			<departures>
				<departure id="2" departureTime="06:01:00"/>
				<departure id="3" departureTime="06:05:01"/>
				<departure id="4" departureTime="06:15:01"/>
				<departure id="5" departureTime="06:25:01"/>
				<departure id="6" departureTime="06:35:01"/>
				<departure id="7" departureTime="06:43:01"/>
				<departure id="8" departureTime="06:49:01"/>
				<departure id="9" departureTime="06:56:01"/>
				<departure id="10" departureTime="07:03:01"/>
				<departure id="11" departureTime="07:06:01"/>
				<departure id="12" departureTime="07:13:01"/>
				<departure id="13" departureTime="07:16:01"/>
				<departure id="14" departureTime="07:23:01"/>
				<departure id="15" departureTime="07:26:01"/>
				<departure id="16" departureTime="07:33:01"/>
				<departure id="17" departureTime="07:39:01"/>
				<departure id="18" departureTime="07:43:01"/>
				<departure id="19" departureTime="07:46:01"/>
				<departure id="20" departureTime="07:49:01"/>
				<departure id="21" departureTime="07:53:01"/>
				<departure id="22" departureTime="07:56:01"/>
				<departure id="23" departureTime="08:03:01"/>
				<departure id="24" departureTime="08:06:01"/>
				<departure id="25" departureTime="08:09:01"/>
				<departure id="26" departureTime="08:13:01"/>
				<departure id="27" departureTime="08:16:01"/>
				<departure id="28" departureTime="08:20:01"/>
				<departure id="29" departureTime="08:23:01"/>
				<departure id="30" departureTime="08:26:01"/>
				<departure id="31" departureTime="08:29:01"/>
				<departure id="32" departureTime="08:33:01"/>
				<departure id="33" departureTime="08:36:01"/>
				<departure id="34" departureTime="08:39:01"/>
				<departure id="35" departureTime="08:43:01"/>
				<departure id="36" departureTime="08:46:01"/>
				<departure id="37" departureTime="08:49:01"/>
				<departure id="38" departureTime="08:53:01"/>
				<departure id="39" departureTime="08:56:01"/>
				<departure id="40" departureTime="08:59:01"/>
				<departure id="41" departureTime="09:06:01"/>
				<departure id="42" departureTime="09:09:01"/>
				<departure id="43" departureTime="09:16:01"/>
				<departure id="44" departureTime="09:20:01"/>
				<departure id="45" departureTime="09:23:01"/>
				<departure id="46" departureTime="09:26:01"/>
				<departure id="47" departureTime="09:29:01"/>
				<departure id="48" departureTime="09:33:01"/>
				<departure id="49" departureTime="09:36:01"/>
				<departure id="50" departureTime="09:40:01"/>
				<departure id="51" departureTime="09:43:01"/>
				<departure id="52" departureTime="09:46:01"/>
				<departure id="53" departureTime="09:50:01"/>
				<departure id="54" departureTime="09:53:01"/>
			</departures>
		</transitRoute>
		<transitRoute id="2">
			<transportMode>pt</transportMode>
			<description>T4</description>
			<routeProfile>
				<stop refId="45" arrivalOffset="00:00:00" departureOffset="00:00:30" awaitDeparture="false"/>
				<stop refId="108" arrivalOffset="00:02:00" departureOffset="00:02:30" awaitDeparture="false"/>
			</routeProfile>
			<route>
				<link refId="705"/>
				<link refId="304"/>
				<link refId="280"/>
				<link refId="284"/>
			</route>
			<departures>
				<departure id="2" departureTime="06:00:06"/>
				<departure id="3" departureTime="06:00:48"/>
				<departure id="4" departureTime="06:01:00"/>
				<departure id="5" departureTime="06:02:00"/>
				<departure id="6" departureTime="06:03:01"/>
				<departure id="7" departureTime="06:04:00"/>
				<departure id="8" departureTime="06:14:00"/>
				<departure id="9" departureTime="06:17:01"/>
				<departure id="10" departureTime="06:23:00"/>
				<departure id="11" departureTime="06:28:01"/>
				<departure id="12" departureTime="06:30:00"/>
				<departure id="13" departureTime="06:40:00"/>
				<departure id="14" departureTime="06:40:01"/>
				<departure id="15" departureTime="06:49:31"/>
				<departure id="16" departureTime="06:50:00"/>
				<departure id="17" departureTime="07:00:01"/>
				<departure id="18" departureTime="07:09:01"/>
				<departure id="19" departureTime="07:10:00"/>
				<departure id="20" departureTime="07:13:01"/>
				<departure id="21" departureTime="07:20:00"/>
				<departure id="22" departureTime="07:20:01"/>
				<departure id="23" departureTime="07:29:01"/>
				<departure id="24" departureTime="07:30:01"/>
				<departure id="25" departureTime="07:33:01"/>
				<departure id="26" departureTime="07:40:00"/>
				<departure id="27" departureTime="07:40:01"/>
				<departure id="28" departureTime="07:49:01"/>
				<departure id="29" departureTime="07:50:01"/>
				<departure id="30" departureTime="08:00:00"/>
				<departure id="31" departureTime="08:00:01"/>
				<departure id="32" departureTime="08:09:01"/>
				<departure id="33" departureTime="08:10:01"/>
				<departure id="34" departureTime="08:13:01"/>
				<departure id="35" departureTime="08:20:01"/>
				<departure id="36" departureTime="08:29:01"/>
				<departure id="37" departureTime="08:30:01"/>
				<departure id="38" departureTime="08:33:01"/>
				<departure id="39" departureTime="08:40:01"/>
				<departure id="40" departureTime="08:49:01"/>
				<departure id="41" departureTime="08:50:01"/>
				<departure id="42" departureTime="08:53:01"/>
				<departure id="43" departureTime="09:00:01"/>
				<departure id="44" departureTime="09:03:01"/>
				<departure id="45" departureTime="09:10:01"/>
				<departure id="46" departureTime="09:18:01"/>
				<departure id="47" departureTime="09:20:01"/>
				<departure id="48" departureTime="09:24:01"/>
				<departure id="49" departureTime="09:30:01"/>
				<departure id="50" departureTime="09:33:01"/>
				<departure id="51" departureTime="09:48:01"/>
				<departure id="52" departureTime="09:54:01"/>
			</departures>
		</transitRoute>
	</transitLine>
	<transitLine id="67" name="T8">
		<transitRoute id="1">
			<transportMode>pt</transportMode>
			<description>T8</description>
			<routeProfile>
				<stop refId="114" arrivalOffset="00:00:00" departureOffset="00:00:30" awaitDeparture="false"/>
				<stop refId="0" arrivalOffset="00:03:24" departureOffset="00:03:54" awaitDeparture="false"/>
				<stop refId="106" arrivalOffset="00:05:42" departureOffset="00:06:12" awaitDeparture="false"/>
				<stop refId="39" arrivalOffset="00:08:12" departureOffset="00:08:42" awaitDeparture="false"/>
			</routeProfile>
			<route>
				<link refId="1111"/>
				<link refId="268"/>
				<link refId="1895"/>
				<link refId="1893"/>
				<link refId="2205"/>
				<link refId="1501"/>
				<link refId="1095"/>
				<link refId="2203"/>
				<link refId="2169"/>
				<link refId="308"/>
				<link refId="1415"/>
				<link refId="1107"/>
				<link refId="2165"/>
				<link refId="2163"/>
			</route>
			<departures>
				<departure id="2" departureTime="06:08:31"/>
				<departure id="3" departureTime="06:38:31"/>
				<departure id="4" departureTime="07:08:31"/>
			</departures>
		</transitRoute>
		<transitRoute id="2">
			<transportMode>pt</transportMode>
			<description>T8</description>
			<routeProfile>
				<stop refId="49" arrivalOffset="00:00:00" departureOffset="00:00:30" awaitDeparture="false"/>
				<stop refId="112" arrivalOffset="00:02:36" departureOffset="00:03:06" awaitDeparture="false"/>
				<stop refId="117" arrivalOffset="00:05:06" departureOffset="00:05:36" awaitDeparture="false"/>
				<stop refId="116" arrivalOffset="00:08:06" departureOffset="00:08:36" awaitDeparture="false"/>
			</routeProfile>
			<route>
				<link refId="711"/>
				<link refId="1389"/>
				<link refId="2177"/>
				<link refId="1109"/>
				<link refId="306"/>
				<link refId="2171"/>
				<link refId="2207"/>
				<link refId="1417"/>
				<link refId="1097"/>
				<link refId="2209"/>
				<link refId="1257"/>
				<link refId="1899"/>
				<link refId="1897"/>
				<link refId="274"/>
			</route>
			<departures>
				<departure id="2" departureTime="09:22:01"/>
				<departure id="3" departureTime="09:25:01"/>
			</departures>
		</transitRoute>
		<transitRoute id="3">
			<transportMode>pt</transportMode>
			<description>T8</description>
			<routeProfile>
				<stop refId="49" arrivalOffset="00:00:00" departureOffset="00:00:30" awaitDeparture="false"/>
				<stop refId="112" arrivalOffset="00:02:36" departureOffset="00:03:06" awaitDeparture="false"/>
				<stop refId="117" arrivalOffset="00:05:36" departureOffset="00:06:06" awaitDeparture="false"/>
				<stop refId="116" arrivalOffset="00:08:36" departureOffset="00:09:06" awaitDeparture="false"/>
			</routeProfile>
			<route>
				<link refId="711"/>
				<link refId="1389"/>
				<link refId="2177"/>
				<link refId="1109"/>
				<link refId="306"/>
				<link refId="2171"/>
				<link refId="2207"/>
				<link refId="1417"/>
				<link refId="1097"/>
				<link refId="2209"/>
				<link refId="1257"/>
				<link refId="1899"/>
				<link refId="1897"/>
				<link refId="274"/>
			</route>
			<departures>
				<departure id="2" departureTime="06:02:01"/>
				<departure id="3" departureTime="06:05:01"/>
				<departure id="4" departureTime="06:17:01"/>
				<departure id="5" departureTime="06:20:01"/>
				<departure id="6" departureTime="06:23:01"/>
				<departure id="7" departureTime="06:32:01"/>
				<departure id="8" departureTime="06:35:01"/>
				<departure id="9" departureTime="06:47:01"/>
				<departure id="10" departureTime="06:50:01"/>
				<departure id="11" departureTime="06:53:01"/>
				<departure id="12" departureTime="07:02:01"/>
				<departure id="13" departureTime="07:05:01"/>
				<departure id="14" departureTime="07:12:01"/>
				<departure id="15" departureTime="07:17:01"/>
				<departure id="16" departureTime="07:23:01"/>
				<departure id="17" departureTime="07:27:01"/>
				<departure id="18" departureTime="07:30:01"/>
				<departure id="19" departureTime="07:33:01"/>
				<departure id="20" departureTime="07:36:01"/>
				<departure id="21" departureTime="07:42:01"/>
				<departure id="22" departureTime="07:45:01"/>
				<departure id="23" departureTime="07:51:01"/>
				<departure id="24" departureTime="07:54:01"/>
				<departure id="25" departureTime="08:00:01"/>
				<departure id="26" departureTime="08:06:01"/>
				<departure id="27" departureTime="08:12:01"/>
				<departure id="28" departureTime="08:15:01"/>
				<departure id="29" departureTime="08:21:01"/>
				<departure id="30" departureTime="08:30:01"/>
				<departure id="31" departureTime="08:36:01"/>
				<departure id="32" departureTime="08:42:01"/>
				<departure id="33" departureTime="08:45:01"/>
				<departure id="34" departureTime="08:51:01"/>
				<departure id="35" departureTime="08:57:01"/>
				<departure id="36" departureTime="09:00:01"/>
				<departure id="37" departureTime="09:06:01"/>
				<departure id="38" departureTime="09:12:01"/>
				<departure id="39" departureTime="09:21:01"/>
				<departure id="40" departureTime="09:25:01"/>
				<departure id="41" departureTime="09:27:01"/>
				<departure id="42" departureTime="09:36:01"/>
				<departure id="43" departureTime="09:39:01"/>
				<departure id="44" departureTime="09:42:01"/>
				<departure id="45" departureTime="09:51:01"/>
				<departure id="46" departureTime="09:57:01"/>
			</departures>
		</transitRoute>
		<transitRoute id="4">
			<transportMode>pt</transportMode>
			<description>T8</description>
			<routeProfile>
				<stop refId="114" arrivalOffset="00:00:00" departureOffset="00:00:30" awaitDeparture="false"/>
				<stop refId="0" arrivalOffset="00:03:30" departureOffset="00:04:00" awaitDeparture="false"/>
				<stop refId="106" arrivalOffset="00:05:48" departureOffset="00:06:18" awaitDeparture="false"/>
				<stop refId="39" arrivalOffset="00:08:18" departureOffset="00:08:48" awaitDeparture="false"/>
			</routeProfile>
			<route>
				<link refId="1111"/>
				<link refId="268"/>
				<link refId="1895"/>
				<link refId="1893"/>
				<link refId="2205"/>
				<link refId="1501"/>
				<link refId="1095"/>
				<link refId="2203"/>
				<link refId="2169"/>
				<link refId="308"/>
				<link refId="1415"/>
				<link refId="1107"/>
				<link refId="2165"/>
				<link refId="2163"/>
			</route>
			<departures>
				<departure id="2" departureTime="08:23:01"/>
			</departures>
		</transitRoute>
		<transitRoute id="5">
			<transportMode>pt</transportMode>
			<description>T8</description>
			<routeProfile>
				<stop refId="129" arrivalOffset="00:00:00" departureOffset="00:00:30" awaitDeparture="false"/>
				<stop refId="116" arrivalOffset="00:03:00" departureOffset="00:03:30" awaitDeparture="false"/>
			</routeProfile>
			<route>
				<link refId="1097"/>
				<link refId="2209"/>
				<link refId="1257"/>
				<link refId="1899"/>
				<link refId="1897"/>
				<link refId="274"/>
			</route>
			<departures>
				<departure id="2" departureTime="06:02:30"/>
			</departures>
		</transitRoute>
	</transitLine>
	<transitLine id="68" name="T9">
		<transitRoute id="1">
			<transportMode>pt</transportMode>
			<description>T9</description>
			<routeProfile>
				<stop refId="27" arrivalOffset="00:00:00" departureOffset="00:01:00" awaitDeparture="false"/>
				<stop refId="41" arrivalOffset="00:03:06" departureOffset="00:04:06" awaitDeparture="false"/>
			</routeProfile>
			<route>
				<link refId="1099"/>
				<link refId="2193"/>
				<link refId="2195"/>
			</route>
			<departures>
				<departure id="2" departureTime="06:00:36"/>
				<departure id="3" departureTime="06:02:00"/>
				<departure id="4" departureTime="06:09:01"/>
				<departure id="5" departureTime="06:17:01"/>
				<departure id="6" departureTime="06:24:01"/>
				<departure id="7" departureTime="06:39:01"/>
				<departure id="8" departureTime="06:54:01"/>
				<departure id="9" departureTime="07:09:01"/>
				<departure id="10" departureTime="07:24:01"/>
				<departure id="11" departureTime="07:39:01"/>
				<departure id="12" departureTime="07:54:01"/>
				<departure id="13" departureTime="08:09:01"/>
				<departure id="14" departureTime="08:24:01"/>
				<departure id="15" departureTime="08:26:01"/>
				<departure id="16" departureTime="08:39:01"/>
				<departure id="17" departureTime="08:49:01"/>
				<departure id="18" departureTime="08:55:01"/>
				<departure id="19" departureTime="08:56:01"/>
				<departure id="20" departureTime="09:25:01"/>
				<departure id="21" departureTime="09:26:01"/>
				<departure id="22" departureTime="09:55:01"/>
				<departure id="23" departureTime="09:56:01"/>
			</departures>
		</transitRoute>
		<transitRoute id="2">
			<transportMode>pt</transportMode>
			<description>T9</description>
			<routeProfile>
				<stop refId="42" arrivalOffset="00:00:00" departureOffset="00:01:00" awaitDeparture="false"/>
				<stop refId="90" arrivalOffset="00:02:48" departureOffset="00:03:48" awaitDeparture="false"/>
			</routeProfile>
			<route>
				<link refId="2196"/>
				<link refId="2194"/>
				<link refId="1100"/>
			</route>
			<departures>
				<departure id="2" departureTime="06:09:01"/>
				<departure id="3" departureTime="06:24:01"/>
				<departure id="4" departureTime="06:39:01"/>
				<departure id="5" departureTime="06:54:01"/>
				<departure id="6" departureTime="07:09:01"/>
				<departure id="7" departureTime="07:24:01"/>
				<departure id="8" departureTime="07:39:01"/>
			</departures>
		</transitRoute>
	</transitLine>
</transitSchedule>
