<?xml version="1.0" encoding="UTF-8"?>
<!DOCTYPE network SYSTEM "https://www.matsim.org/files/dtd/network_v2.dtd">
<network>
	<nodes>
		<node id="0" x="1579440.73988827" y="-3922232.65142029"/>
		<node id="1" x="1579356.13160297" y="-3922209.25079276"/>
		<node id="2" x="1578908.31673522" y="-3922335.27779081"/>
		<node id="3" x="1578399.75017939" y="-3922633.71903574"/>
		<node id="4" x="1578758.68846968" y="-3922362.52093222"/>
		<node id="5" x="1578764.11634632" y="-3922370.19644124"/>
		<node id="6" x="1579695.3239685" y="-3921820.11693005"/>
		<node id="7" x="1579691.12291297" y="-3921799.83519731"/>
		<node id="8" x="1579697.53516595" y="-3921781.56225235"/>
		<node id="9" x="1579711.55711435" y="-3921826.52017577"/>
		<node id="10" x="1579067.37749714" y="-3922802.45297422"/>
		<node id="11" x="1579676.93257375" y="-3921824.92146307"/>
		<node id="12" x="1579688.09207721" y="-3921808.13823246"/>
		<node id="13" x="1579684.24020203" y="-3921796.64774722"/>
		<node id="14" x="1578500.12935955" y="-3922320.16286931"/>
		<node id="15" x="1578942.79945865" y="-3922071.79891689"/>
		<node id="16" x="1578954.30345373" y="-3921703.92546738"/>
		<node id="17" x="1578893.28123606" y="-3921788.98471474"/>
		<node id="18" x="1579184.4044584" y="-3923281.25197452"/>
		<node id="19" x="1579067.3364603" y="-3923528.83352882"/>
		<node id="20" x="1579201.57458321" y="-3923099.77444216"/>
		<node id="21" x="1579129.04104639" y="-3922826.66635204"/>
		<node id="22" x="1579031.13509473" y="-3922481.90088459"/>
		<node id="23" x="1579151.48910732" y="-3922832.12122137"/>
		<node id="24" x="1579048.7477625" y="-3922833.74491559"/>
		<node id="25" x="1579502.69080482" y="-3922234.0399346"/>
		<node id="26" x="1578835.02730937" y="-3923120.44494063"/>
		<node id="27" x="1579046.63896673" y="-3922822.48347846"/>
		<node id="28" x="1578510.83647102" y="-3922203.04344723"/>
		<node id="29" x="1578517.98161082" y="-3922203.5153614"/>
		<node id="30" x="1578699.78567848" y="-3921583.82472846"/>
		<node id="31" x="1578700.12276312" y="-3921592.03499903"/>
		<node id="32" x="1578687.48638671" y="-3921582.58703143"/>
		<node id="33" x="1578686.56933677" y="-3921590.39064406"/>
		<node id="34" x="1579089.97441135" y="-3922445.78076815"/>
		<node id="35" x="1578566.11188649" y="-3921626.32196552"/>
		<node id="36" x="1578710.00594611" y="-3921584.84285689"/>
		<node id="37" x="1579154.20468105" y="-3922979.07066814"/>
		<node id="38" x="1579835.55142808" y="-3923024.90881314"/>
		<node id="39" x="1579900.33925755" y="-3922862.97333897"/>
		<node id="40" x="1579906.59623538" y="-3922865.7072341"/>
		<node id="41" x="1579883.64703129" y="-3922936.86692295"/>
		<node id="42" x="1579890.27026029" y="-3922938.35930614"/>
		<node id="43" x="1579876.06140031" y="-3923010.14504742"/>
		<node id="44" x="1579886.53439202" y="-3923031.55955761"/>
		<node id="45" x="1579856.37268388" y="-3923033.93891487"/>
		<node id="46" x="1579091.97287311" y="-3922359.47088223"/>
		<node id="47" x="1578600.34476953" y="-3921711.70698723"/>
		<node id="48" x="1579889.33458923" y="-3923040.96746201"/>
		<node id="49" x="1579652.07592911" y="-3923287.50956275"/>
		<node id="50" x="1579797.77178132" y="-3923042.24334349"/>
		<node id="51" x="1579759.81563071" y="-3923281.62428086"/>
		<node id="52" x="1579809.05699075" y="-3923073.73831495"/>
		<node id="53" x="1579836.88814007" y="-3923029.97157144"/>
		<node id="54" x="1579227.63610258" y="-3923073.88406113"/>
		<node id="55" x="1579257.31196536" y="-3923085.06902741"/>
		<node id="56" x="1579295.44763434" y="-3923132.48250794"/>
		<node id="57" x="1579047.12086283" y="-3921556.84526622"/>
		<node id="58" x="1578751.90830757" y="-3921576.98303669"/>
		<node id="59" x="1579219.71190505" y="-3922506.10613889"/>
		<node id="60" x="1579078.52731725" y="-3921584.09396344"/>
		<node id="61" x="1578887.9458639" y="-3921787.51453111"/>
		<node id="62" x="1578714.02544313" y="-3922548.5165585"/>
		<node id="63" x="1578820.55283532" y="-3922542.48839217"/>
		<node id="64" x="1578358.21359895" y="-3922751.19283018"/>
		<node id="65" x="1578431.56688951" y="-3923115.25850184"/>
		<node id="66" x="1578441.52895816" y="-3923032.14982645"/>
		<node id="67" x="1578431.4865687" y="-3923119.07887943"/>
		<node id="68" x="1578443.46358562" y="-3922897.58119245"/>
		<node id="69" x="1578767.71825647" y="-3921726.07698613"/>
		<node id="70" x="1578447.5837569" y="-3922913.06235676"/>
		<node id="71" x="1579812.89945521" y="-3923148.90416489"/>
		<node id="72" x="1578443.53920352" y="-3922883.94773226"/>
		<node id="73" x="1578798.20148716" y="-3921926.54397132"/>
		<node id="74" x="1578777.83293712" y="-3921912.32167682"/>
		<node id="75" x="1579709.67674494" y="-3923217.23916965"/>
		<node id="76" x="1579690.43842237" y="-3923138.43597872"/>
		<node id="77" x="1579223.76341794" y="-3922696.28665938"/>
		<node id="78" x="1579223.12533549" y="-3922153.80907521"/>
		<node id="79" x="1578716.73808499" y="-3922200.32298878"/>
		<node id="80" x="1578979.86254228" y="-3921471.61973934"/>
		<node id="81" x="1578824.68494261" y="-3922063.36588305"/>
		<node id="82" x="1578806.7653634" y="-3922082.76029889"/>
		<node id="83" x="1579817.61770748" y="-3923047.36311404"/>
		<node id="84" x="1578821.59994448" y="-3922055.6790695"/>
		<node id="85" x="1578839.92198033" y="-3922034.84768038"/>
		<node id="86" x="1578719.89162731" y="-3922183.77243349"/>
		<node id="87" x="1578712.98916612" y="-3922179.31311555"/>
		<node id="88" x="1578703.17115858" y="-3922197.02827657"/>
		<node id="89" x="1578708.19568471" y="-3922210.12790764"/>
		<node id="90" x="1578901.71129666" y="-3922080.77253853"/>
		<node id="91" x="1579677.56743593" y="-3922981.36407175"/>
		<node id="92" x="1578842.85578322" y="-3922029.67191042"/>
		<node id="93" x="1578822.50498852" y="-3922067.45378873"/>
		<node id="94" x="1579219.41840104" y="-3921866.71356304"/>
		<node id="95" x="1579165.81954161" y="-3922679.05662698"/>
		<node id="96" x="1579264.71587025" y="-3921701.59184328"/>
		<node id="97" x="1578442.95823912" y="-3922698.16659745"/>
		<node id="98" x="1578442.68651635" y="-3922770.95937252"/>
		<node id="99" x="1578558.16909141" y="-3923098.55035299"/>
		<node id="100" x="1578560.21075019" y="-3921484.12914694"/>
		<node id="101" x="1578573.02076374" y="-3921471.13646439"/>
		<node id="102" x="1579718.2142288" y="-3922945.52326148"/>
		<node id="103" x="1578857.62947401" y="-3922121.38815498"/>
		<node id="104" x="1578865.02926109" y="-3922126.21679528"/>
		<node id="105" x="1579877.97118223" y="-3923159.7696163"/>
		<node id="106" x="1579854.05387536" y="-3923103.72204848"/>
		<node id="107" x="1579194.67581221" y="-3922649.34135974"/>
		<node id="108" x="1579863.36624434" y="-3923053.97149578"/>
		<node id="109" x="1579225.5244002" y="-3921672.17817744"/>
		<node id="110" x="1578432.61045864" y="-3923121.17169743"/>
		<node id="111" x="1578573.20336617" y="-3921460.63666031"/>
		<node id="112" x="1578550.20573487" y="-3921416.31572671"/>
		<node id="113" x="1579787.14024047" y="-3923433.10521703"/>
		<node id="114" x="1579040.65479376" y="-3922908.12829447"/>
		<node id="115" x="1579185.64814242" y="-3922848.601645"/>
		<node id="116" x="1578566.76037042" y="-3922868.6671889"/>
		<node id="117" x="1578411.61301477" y="-3922634.33955977"/>
		<node id="118" x="1579063.84243314" y="-3922816.84605622"/>
		<node id="119" x="1578784.61817716" y="-3922892.64536983"/>
		<node id="120" x="1578707.50870603" y="-3923429.7392576"/>
		<node id="121" x="1578693.51304455" y="-3923431.25719401"/>
		<node id="122" x="1578702.481265" y="-3923438.05514723"/>
		<node id="123" x="1578717.31527073" y="-3923425.24857632"/>
		<node id="124" x="1578691.91880451" y="-3923424.0754581"/>
		<node id="125" x="1579020.3742584" y="-3923275.74301849"/>
		<node id="126" x="1578659.85297635" y="-3922393.23266304"/>
		<node id="127" x="1579414.59020753" y="-3923218.71772614"/>
		<node id="128" x="1579503.39295699" y="-3920946.24588333"/>
		<node id="129" x="1579796.19439361" y="-3923406.11022843"/>
		<node id="130" x="1579272.00630439" y="-3922572.62034926"/>
		<node id="131" x="1578494.10950516" y="-3922573.76448729"/>
		<node id="132" x="1580144.21664555" y="-3922511.04929674"/>
		<node id="133" x="1579809.00905289" y="-3923367.55401802"/>
		<node id="134" x="1579890.47346923" y="-3923126.77610308"/>
		<node id="135" x="1579533.78055653" y="-3923391.73788515"/>
		<node id="136" x="1579033.30139472" y="-3923222.15975212"/>
		<node id="137" x="1578940.01341006" y="-3921515.01892882"/>
		<node id="138" x="1578705.76122023" y="-3922714.61790056"/>
		<node id="139" x="1579629.66975967" y="-3920564.99675416"/>
		<node id="140" x="1578460.11624593" y="-3923322.64811911"/>
		<node id="141" x="1578624.3922174" y="-3921586.64795785"/>
		<node id="142" x="1578709.03509345" y="-3922634.03568667"/>
		<node id="143" x="1579433.03743053" y="-3920906.82412833"/>
		<node id="144" x="1578693.42894483" y="-3923037.08129286"/>
		<node id="145" x="1578681.35610725" y="-3923318.84543633"/>
		<node id="146" x="1578684.67670442" y="-3923273.89869415"/>
		<node id="147" x="1579296.71916924" y="-3923159.52263619"/>
		<node id="148" x="1579488.76060455" y="-3923525.94092943"/>
		<node id="149" x="1579810.83286696" y="-3922844.09302973"/>
		<node id="150" x="1579500.34408397" y="-3919968.38869533"/>
		<node id="151" x="1578623.96644255" y="-3923013.14420412"/>
		<node id="152" x="1579271.43204609" y="-3922226.49112036"/>
		<node id="153" x="1578492.27063867" y="-3922600.34799626"/>
		<node id="154" x="1579274.11277622" y="-3922883.82718292"/>
		<node id="155" x="1579196.28860728" y="-3922843.87059869"/>
		<node id="156" x="1578351.91255487" y="-3922471.61308417"/>
		<node id="157" x="1579093.03984387" y="-3922986.16764359"/>
		<node id="158" x="1579140.56877491" y="-3922998.66540376"/>
		<node id="159" x="1579321.37525411" y="-3922501.33900646"/>
		<node id="160" x="1579311.27004786" y="-3922538.92875211"/>
		<node id="161" x="1579279.34681959" y="-3922490.64587585"/>
		<node id="162" x="1579538.9129855" y="-3919973.43664344"/>
		<node id="163" x="1578581.65215659" y="-3922644.09711942"/>
		<node id="164" x="1578639.01327378" y="-3922645.46154239"/>
		<node id="165" x="1579365.12048939" y="-3922149.08712614"/>
		<node id="166" x="1579254.00320624" y="-3923093.16696945"/>
		<node id="167" x="1578465.7910171" y="-3923190.40932414"/>
		<node id="168" x="1579605.99059688" y="-3921799.76132915"/>
		<node id="169" x="1578764.0354854" y="-3921937.60781712"/>
		<node id="170" x="1578716.67770845" y="-3921916.34836041"/>
		<node id="171" x="1578626.03318052" y="-3922268.18569305"/>
		<node id="172" x="1578669.55928725" y="-3922163.33944219"/>
		<node id="173" x="1579783.49693807" y="-3923266.06593634"/>
		<node id="174" x="1579756.83561704" y="-3923320.08535706"/>
		<node id="175" x="1579456.12838013" y="-3923305.80695738"/>
		<node id="176" x="1579341.72502691" y="-3923320.34411095"/>
		<node id="177" x="1579629.26037945" y="-3923815.35269593"/>
		<node id="178" x="1579349.66149665" y="-3922591.3110049"/>
		<node id="179" x="1579307.49582066" y="-3923155.48353918"/>
		<node id="180" x="1578890.34287892" y="-3921829.66661409"/>
		<node id="181" x="1578855.4088855" y="-3921893.0381627"/>
		<node id="182" x="1578809.5367078" y="-3922590.47816678"/>
		<node id="183" x="1579785.79458099" y="-3923000.873823"/>
		<node id="184" x="1579741.30405471" y="-3922897.26015241"/>
		<node id="185" x="1579687.05171474" y="-3923242.38835393"/>
		<node id="186" x="1579776.99381562" y="-3923165.11602533"/>
		<node id="187" x="1578875.62829172" y="-3921666.56700003"/>
		<node id="188" x="1579019.54932064" y="-3921542.83306674"/>
		<node id="189" x="1579495.029652" y="-3921343.51670806"/>
		<node id="190" x="1579004.13313494" y="-3921478.97335354"/>
		<node id="191" x="1579351.97726255" y="-3923172.89737786"/>
		<node id="192" x="1578825.96598393" y="-3921600.58426216"/>
		<node id="193" x="1579134.09022456" y="-3921795.11228941"/>
		<node id="194" x="1579084.85048142" y="-3921775.84186052"/>
		<node id="195" x="1579033.32108346" y="-3921858.1545382"/>
		<node id="196" x="1578938.73374499" y="-3922353.03469964"/>
		<node id="197" x="1579005.8704055" y="-3922403.69593277"/>
		<node id="198" x="1579751.05233435" y="-3923204.14252345"/>
		<node id="199" x="1579692.08217694" y="-3923247.61507737"/>
		<node id="200" x="1578802.94630741" y="-3922811.68109383"/>
		<node id="201" x="1579765.09848849" y="-3923191.75553136"/>
		<node id="202" x="1579800.22003642" y="-3923070.84922478"/>
		<node id="203" x="1579529.93602642" y="-3923348.86090149"/>
		<node id="204" x="1579789.43571247" y="-3923034.91242296"/>
		<node id="205" x="1578623.33929476" y="-3923039.70993016"/>
		<node id="206" x="1578591.82607541" y="-3923012.59137074"/>
		<node id="207" x="1578594.56258211" y="-3923038.51873052"/>
		<node id="208" x="1578594.00999657" y="-3923053.65698972"/>
		<node id="209" x="1578629.016011" y="-3922871.38538211"/>
		<node id="210" x="1578700.06627168" y="-3922873.18825228"/>
		<node id="211" x="1578854.26414916" y="-3922589.3344394"/>
		<node id="212" x="1578782.98734219" y="-3922892.20904931"/>
		<node id="213" x="1579049.71041584" y="-3923154.01551615"/>
		<node id="214" x="1578755.0247642" y="-3923118.55481053"/>
		<node id="215" x="1579643.97498353" y="-3923271.73503878"/>
		<node id="216" x="1578758.40814339" y="-3922289.63028174"/>
		<node id="217" x="1578341.48589407" y="-3923224.24194625"/>
		<node id="218" x="1578406.01887172" y="-3922906.36773448"/>
		<node id="219" x="1578651.96186588" y="-3922303.89004454"/>
		<node id="220" x="1578702.81190628" y="-3922293.98837275"/>
		<node id="221" x="1578387.7173832" y="-3923107.14647165"/>
		<node id="222" x="1579015.10603957" y="-3922111.45518393"/>
		<node id="223" x="1578419.69969274" y="-3923055.99623333"/>
		<node id="224" x="1578414.16766725" y="-3923141.1408582"/>
		<node id="225" x="1578419.9071222" y="-3922923.03851329"/>
		<node id="226" x="1578416.40397049" y="-3922836.2375894"/>
		<node id="227" x="1578789.30919806" y="-3922059.33847015"/>
		<node id="228" x="1578412.52241224" y="-3923017.2500942"/>
		<node id="229" x="1578418.9694421" y="-3922976.24860928"/>
		<node id="230" x="1578404.82752941" y="-3923015.37704861"/>
		<node id="231" x="1578412.46101468" y="-3922974.26055242"/>
		<node id="232" x="1578415.30709015" y="-3922952.65530218"/>
		<node id="233" x="1579021.2331873" y="-3922101.98593383"/>
		<node id="234" x="1578752.65251329" y="-3922136.97446636"/>
		<node id="235" x="1578681.2204345" y="-3922145.66657131"/>
		<node id="236" x="1578748.78404007" y="-3922039.6104161"/>
		<node id="237" x="1578839.07050531" y="-3922303.29421668"/>
		<node id="238" x="1579420.80083999" y="-3922177.29943267"/>
		<node id="239" x="1578783.82211592" y="-3922093.36551156"/>
		<node id="240" x="1579444.493373" y="-3922615.34160262"/>
		<node id="241" x="1579376.41092966" y="-3922172.54008917"/>
		<node id="242" x="1579071.14580327" y="-3922093.57159152"/>
		<node id="243" x="1579177.97826493" y="-3921291.24736001"/>
		<node id="244" x="1578337.94189293" y="-3922745.24854807"/>
		<node id="245" x="1578947.98447015" y="-3922195.80793229"/>
		<node id="246" x="1579136.02140186" y="-3921326.26268063"/>
		<node id="247" x="1579215.02512714" y="-3921316.4779371"/>
		<node id="248" x="1579253.19642456" y="-3921350.47294894"/>
		<node id="249" x="1578892.10711176" y="-3921563.75423711"/>
		<node id="250" x="1578892.03684801" y="-3921559.81299208"/>
		<node id="251" x="1578887.42666824" y="-3921525.89875917"/>
		<node id="252" x="1578548.63101826" y="-3922168.7331795"/>
		<node id="253" x="1579639.48976962" y="-3923071.15533569"/>
		<node id="254" x="1579503.02652438" y="-3922952.91457429"/>
		<node id="255" x="1579375.12825055" y="-3922882.45770788"/>
		<node id="256" x="1578781.20300962" y="-3922891.7404419"/>
		<node id="257" x="1579653.84283568" y="-3922802.3249317"/>
		<node id="258" x="1579766.57694997" y="-3922869.89222636"/>
		<node id="259" x="1578548.38222142" y="-3922446.80791077"/>
		<node id="260" x="1578582.17996541" y="-3922417.15952376"/>
		<node id="261" x="1579076.08785358" y="-3923055.84950001"/>
		<node id="262" x="1579117.12383378" y="-3923073.12164524"/>
		<node id="263" x="1579064.33101631" y="-3923104.21649281"/>
		<node id="264" x="1579286.89123639" y="-3922170.74980456"/>
		<node id="265" x="1578594.03224525" y="-3922174.24121415"/>
		<node id="266" x="1578697.15310156" y="-3921591.67045033"/>
		<node id="267" x="1578749.4528489" y="-3923118.19920219"/>
		<node id="268" x="1578697.23026848" y="-3921562.57863537"/>
		<node id="269" x="1579743.4043616" y="-3922895.0325281"/>
		<node id="270" x="1579570.52408388" y="-3922781.12684822"/>
		<node id="271" x="1579626.74912816" y="-3922815.87600535"/>
		<node id="272" x="1579793.53567117" y="-3923034.15226775"/>
		<node id="273" x="1579554.83533628" y="-3922776.51382061"/>
		<node id="274" x="1579509.92539236" y="-3922751.21045234"/>
		<node id="275" x="1578898.98920527" y="-3921834.75607519"/>
		<node id="276" x="1578479.66972679" y="-3922821.64109559"/>
		<node id="277" x="1578547.16208714" y="-3922182.29701768"/>
		<node id="278" x="1578752.65290768" y="-3923118.43963088"/>
		<node id="279" x="1578513.70487994" y="-3922823.51178809"/>
		<node id="280" x="1578589.8996789" y="-3922231.35409085"/>
		<node id="281" x="1578641.29043715" y="-3922270.87786156"/>
		<node id="282" x="1579133.71506653" y="-3921743.08117395"/>
		<node id="283" x="1579122.34580397" y="-3921709.53834108"/>
		<node id="284" x="1578471.90790171" y="-3922996.21601023"/>
		<node id="285" x="1578469.4389304" y="-3923077.9399201"/>
		<node id="286" x="1578469.18883512" y="-3923099.17887557"/>
		<node id="287" x="1578451.69593416" y="-3923606.45389353"/>
		<node id="288" x="1579657.18541379" y="-3923262.10632597"/>
		<node id="289" x="1578870.9032512" y="-3922503.63831844"/>
		<node id="290" x="1578541.60794179" y="-3922230.10342516"/>
		<node id="291" x="1579676.71533803" y="-3923242.22193005"/>
		<node id="292" x="1579738.58013098" y="-3922900.23715088"/>
		<node id="293" x="1579706.08458013" y="-3922868.32431684"/>
		<node id="294" x="1579786.44292559" y="-3923036.60488925"/>
		<node id="295" x="1578906.06249382" y="-3922332.08250479"/>
		<node id="296" x="1578721.09361284" y="-3922332.7269712"/>
		<node id="297" x="1578717.29034002" y="-3922475.8578999"/>
		<node id="298" x="1579095.07537725" y="-3921879.99574146"/>
		<node id="299" x="1579045.74722591" y="-3922039.92975265"/>
		<node id="300" x="1579415.22371294" y="-3922646.90390351"/>
		<node id="301" x="1579089.79343483" y="-3921613.80222178"/>
		<node id="302" x="1579916.49408682" y="-3923058.94669003"/>
		<node id="303" x="1579472.85466769" y="-3922717.43151731"/>
		<node id="304" x="1579436.29194315" y="-3922684.27966476"/>
		<node id="305" x="1579461.1762149" y="-3922207.67941722"/>
		<node id="306" x="1578796.22116742" y="-3922114.17492768"/>
		<node id="307" x="1578774.08313734" y="-3922150.29620536"/>
		<node id="308" x="1578690.61345454" y="-3923113.82354184"/>
		<node id="309" x="1578690.44636223" y="-3923125.01642556"/>
		<node id="310" x="1579224.82994758" y="-3922413.95539363"/>
		<node id="311" x="1579065.04614998" y="-3922113.15766387"/>
		<node id="312" x="1579311.9198031" y="-3922367.42877814"/>
		<node id="313" x="1579189.17819694" y="-3922293.34262662"/>
		<node id="314" x="1579775.68929475" y="-3923467.10159111"/>
		<node id="315" x="1579208.69045662" y="-3922211.96369169"/>
		<node id="316" x="1579663.98688037" y="-3923274.8392201"/>
		<node id="317" x="1579668.65284706" y="-3922843.50541828"/>
		<node id="318" x="1579703.6025798" y="-3922872.91626675"/>
		<node id="319" x="1579813.31061971" y="-3923024.89418334"/>
		<node id="320" x="1579827.98095875" y="-3923018.76381302"/>
		<node id="321" x="1579797.28244593" y="-3923032.78651808"/>
		<node id="322" x="1578874.07067528" y="-3922504.38660241"/>
		<node id="323" x="1579734.91377239" y="-3922904.18688169"/>
		<node id="324" x="1579806.34987183" y="-3923062.03768836"/>
		<node id="325" x="1579799.93834757" y="-3923067.63604651"/>
		<node id="326" x="1579503.91007808" y="-3922354.48528908"/>
		<node id="327" x="1579624.26273434" y="-3923302.17552916"/>
		<node id="328" x="1579592.02794487" y="-3923317.84702718"/>
		<node id="329" x="1579579.71667908" y="-3923300.6010724"/>
		<node id="330" x="1579637.33430791" y="-3923254.80299872"/>
		<node id="331" x="1579624.79038424" y="-3923241.40099155"/>
		<node id="332" x="1579649.43157473" y="-3923266.9293993"/>
		<node id="333" x="1578883.02689099" y="-3922450.37715269"/>
		<node id="334" x="1579476.59709675" y="-3923287.46619186"/>
		<node id="335" x="1579652.45413402" y="-3923319.40547739"/>
		<node id="336" x="1579620.50113466" y="-3923414.30760952"/>
		<node id="337" x="1579556.83443747" y="-3923393.93582574"/>
		<node id="338" x="1579530.84837186" y="-3922347.72890127"/>
		<node id="339" x="1579534.91171412" y="-3923399.03333683"/>
		<node id="340" x="1578736.88266468" y="-3922186.42513076"/>
		<node id="341" x="1578716.47666248" y="-3922274.65356232"/>
		<node id="342" x="1579080.3281906" y="-3922218.43242604"/>
		<node id="343" x="1579128.50210711" y="-3922281.49485195"/>
		<node id="344" x="1578888.30205921" y="-3922451.33789123"/>
		<node id="345" x="1579026.86771045" y="-3922424.94439169"/>
		<node id="346" x="1579479.58442794" y="-3922347.61274076"/>
		<node id="347" x="1578734.41580873" y="-3922274.94204248"/>
		<node id="348" x="1578766.49627729" y="-3922146.55562005"/>
		<node id="349" x="1578998.55036551" y="-3921561.10111576"/>
		<node id="350" x="1579749.10692391" y="-3922889.92672417"/>
		<node id="351" x="1579028.7904964" y="-3921583.93440635"/>
		<node id="352" x="1578805.90829359" y="-3921657.81908245"/>
		<node id="353" x="1578343.47348953" y="-3922630.75654066"/>
		<node id="354" x="1578487.01061194" y="-3922640.20365311"/>
		<node id="355" x="1579476.18801938" y="-3922353.7159105"/>
		<node id="356" x="1578824.87720834" y="-3922715.96564512"/>
		<node id="357" x="1578479.71434999" y="-3922852.47680861"/>
		<node id="358" x="1578567.04207474" y="-3922863.0479621"/>
		<node id="359" x="1578575.85683779" y="-3922643.87791298"/>
		<node id="360" x="1578582.36366172" y="-3922492.30905472"/>
		<node id="361" x="1578336.90326603" y="-3922837.17073377"/>
		<node id="362" x="1578793.54157794" y="-3922486.7309689"/>
		<node id="363" x="1579466.96634425" y="-3922696.1817942"/>
		<node id="364" x="1578877.45392287" y="-3922505.18690038"/>
		<node id="365" x="1578868.12579625" y="-3922545.84661438"/>
		<node id="366" x="1578831.22241983" y="-3922494.3840953"/>
		<node id="367" x="1578817.86949912" y="-3922739.38086332"/>
		<node id="368" x="1578867.83612661" y="-3922502.90385517"/>
		<node id="369" x="1578706.49358972" y="-3922690.98966469"/>
		<node id="370" x="1578222.93926493" y="-3922324.02789086"/>
		<node id="371" x="1578201.13809354" y="-3922440.96729328"/>
		<node id="372" x="1579265.3908559" y="-3922858.93469632"/>
		<node id="373" x="1579677.53051159" y="-3923115.07092075"/>
		<node id="374" x="1578720.63202647" y="-3923256.23721735"/>
		<node id="375" x="1579471.05774675" y="-3922678.96964651"/>
		<node id="376" x="1578707.7748403" y="-3922777.51791048"/>
		<node id="377" x="1578720.12308429" y="-3922489.7583064"/>
		<node id="378" x="1578767.58054515" y="-3923006.32145166"/>
		<node id="379" x="1578709.45174891" y="-3922397.67116289"/>
		<node id="380" x="1578870.23742894" y="-3921812.05005183"/>
		<node id="381" x="1578874.29061841" y="-3921806.43823917"/>
		<node id="382" x="1578596.36026426" y="-3922834.95423159"/>
		<node id="383" x="1578596.28623323" y="-3922870.83023215"/>
		<node id="384" x="1579231.85796126" y="-3921366.27693651"/>
		<node id="385" x="1579213.98921241" y="-3921389.87647573"/>
		<node id="386" x="1579537.52266331" y="-3920933.26389819"/>
		<node id="387" x="1579232.86670529" y="-3922156.27647026"/>
		<node id="388" x="1579640.09409987" y="-3922793.4794916"/>
		<node id="389" x="1578762.17340503" y="-3923046.37465856"/>
		<node id="390" x="1578970.55164354" y="-3921673.06321212"/>
		<node id="391" x="1579594.97519854" y="-3920588.82690377"/>
		<node id="392" x="1579599.17925548" y="-3920588.05870493"/>
		<node id="393" x="1578974.76368127" y="-3921675.4033077"/>
		<node id="394" x="1578652.96124427" y="-3923579.14929613"/>
		<node id="395" x="1578737.00130332" y="-3922487.56172473"/>
		<node id="396" x="1578710.82450447" y="-3922777.70418185"/>
		<node id="397" x="1579072.53684995" y="-3922087.92710745"/>
		<node id="398" x="1579377.859134" y="-3922166.27977976"/>
		<node id="399" x="1579380.40417782" y="-3922906.26275041"/>
		<node id="400" x="1578759.52932082" y="-3923065.96952255"/>
		<node id="401" x="1578814.56746347" y="-3922753.97314628"/>
		<node id="402" x="1578003.81976849" y="-3922953.99692577"/>
		<node id="403" x="1578325.36622541" y="-3923067.22684292"/>
		<node id="404" x="1579706.71081622" y="-3923174.39425694"/>
		<node id="405" x="1579666.93160905" y="-3923121.92984069"/>
		<node id="406" x="1579261.80788792" y="-3922874.14536483"/>
		<node id="407" x="1578544.42525361" y="-3921515.95763442"/>
		<node id="408" x="1578555.4735711" y="-3921606.07864176"/>
		<node id="409" x="1578543.32354457" y="-3921627.70478131"/>
		<node id="410" x="1578540.64025388" y="-3921661.21562967"/>
		<node id="411" x="1578816.00826531" y="-3922754.30531949"/>
		<node id="412" x="1578590.31628124" y="-3921634.35615755"/>
		<node id="413" x="1578940.04655225" y="-3922785.70863064"/>
		<node id="414" x="1578557.76239963" y="-3921674.32191252"/>
		<node id="415" x="1578588.35703771" y="-3921632.72748819"/>
		<node id="416" x="1578568.79820633" y="-3921616.60137379"/>
		<node id="417" x="1578576.10303821" y="-3921571.59837531"/>
		<node id="418" x="1578610.1154565" y="-3921528.87105492"/>
		<node id="419" x="1578560.41367366" y="-3921676.45799471"/>
		<node id="420" x="1578518.17496851" y="-3922033.34717297"/>
		<node id="421" x="1578542.99840712" y="-3921744.53767365"/>
		<node id="422" x="1579336.52223803" y="-3922633.049158"/>
		<node id="423" x="1578492.32856391" y="-3922461.23928265"/>
		<node id="424" x="1578492.4839875" y="-3922598.17735463"/>
		<node id="425" x="1579190.50844589" y="-3922829.24549761"/>
		<node id="426" x="1578582.63856707" y="-3921507.22151578"/>
		<node id="427" x="1578651.30612327" y="-3921573.19248363"/>
		<node id="428" x="1578604.49634235" y="-3922008.50617939"/>
		<node id="429" x="1578614.93390655" y="-3921861.77999228"/>
		<node id="430" x="1578626.18275666" y="-3921716.38001823"/>
		<node id="431" x="1578581.85124078" y="-3921699.11337871"/>
		<node id="432" x="1578645.73953868" y="-3922473.01724966"/>
		<node id="433" x="1578861.43971823" y="-3922544.13458547"/>
		<node id="434" x="1578600.83025261" y="-3921603.49440217"/>
		<node id="435" x="1578990.08481776" y="-3921465.61057805"/>
		<node id="436" x="1578996.49978025" y="-3921479.74815709"/>
		<node id="437" x="1579181.78460993" y="-3922864.16348492"/>
		<node id="438" x="1579403.11833263" y="-3922179.66265788"/>
		<node id="439" x="1579605.21136382" y="-3921862.98295951"/>
		<node id="440" x="1579565.6073241" y="-3921885.6466786"/>
		<node id="441" x="1579537.66221319" y="-3921897.61036167"/>
		<node id="442" x="1579489.53483437" y="-3922093.81731789"/>
		<node id="443" x="1579575.39715322" y="-3922013.82154653"/>
		<node id="444" x="1579798.13957106" y="-3923040.99090205"/>
		<node id="445" x="1579365.84083391" y="-3923152.86638275"/>
		<node id="446" x="1579388.80779326" y="-3923143.96961793"/>
		<node id="447" x="1579779.6235316" y="-3922874.73161097"/>
		<node id="448" x="1579799.02234384" y="-3922856.5446747"/>
		<node id="449" x="1578984.99087742" y="-3923144.30597947"/>
		<node id="450" x="1579865.97469056" y="-3922829.38782628"/>
		<node id="451" x="1579802.38355332" y="-3922852.78679092"/>
		<node id="452" x="1579422.59050191" y="-3923121.44946068"/>
		<node id="453" x="1579428.07174756" y="-3922783.88909174"/>
		<node id="454" x="1579358.55506697" y="-3922191.3299837"/>
		<node id="455" x="1579868.70686456" y="-3923027.02983006"/>
		<node id="456" x="1579303.94489005" y="-3922171.12872875"/>
		<node id="457" x="1579460.84555672" y="-3922145.36248922"/>
		<node id="458" x="1579415.53011082" y="-3922333.78300737"/>
		<node id="459" x="1578704.16877232" y="-3922765.99461013"/>
		<node id="460" x="1578633.60260152" y="-3922759.32441378"/>
		<node id="461" x="1578942.14599913" y="-3923308.31194752"/>
		<node id="462" x="1578803.1793629" y="-3922774.92481863"/>
		<node id="463" x="1579325.74611821" y="-3922050.35950715"/>
		<node id="464" x="1582700.26012171" y="-3922025.4169646"/>
		<node id="465" x="1578652.74365788" y="-3922077.66840209"/>
		<node id="466" x="1579571.0460817" y="-3922015.79461269"/>
		<node id="467" x="1579679.53143434" y="-3923141.59913661"/>
		<node id="468" x="1578693.88707303" y="-3922069.36979276"/>
		<node id="469" x="1578683.91130083" y="-3921966.15265649"/>
		<node id="470" x="1578745.55100079" y="-3921991.31755963"/>
		<node id="471" x="1578690.66360422" y="-3921634.12387996"/>
		<node id="472" x="1578689.27281746" y="-3921644.62435822"/>
		<node id="473" x="1578983.75802725" y="-3921438.08667666"/>
		<node id="474" x="1578782.98103398" y="-3922706.07209777"/>
		<node id="475" x="1578994.87459305" y="-3921460.79084981"/>
		<node id="476" x="1579139.70142868" y="-3922782.4143755"/>
		<node id="477" x="1579077.15839716" y="-3922761.14270825"/>
		<node id="478" x="1579166.38104488" y="-3922118.211642"/>
		<node id="479" x="1578997.54886118" y="-3922740.87214676"/>
		<node id="480" x="1579311.84631344" y="-3922723.77449145"/>
		<node id="481" x="1578956.57140214" y="-3922526.68052842"/>
		<node id="482" x="1578940.49908962" y="-3922566.78961275"/>
		<node id="483" x="1578987.20156976" y="-3922581.5894656"/>
		<node id="484" x="1578870.02110666" y="-3922546.31937975"/>
		<node id="485" x="1578916.24357223" y="-3922516.32330206"/>
		<node id="486" x="1578744.04893559" y="-3922699.68341109"/>
		<node id="487" x="1578905.41585138" y="-3922553.43503372"/>
		<node id="488" x="1578997.86578169" y="-3922537.23791905"/>
		<node id="489" x="1579304.10023854" y="-3922147.3487362"/>
		<node id="490" x="1578882.77963354" y="-3922507.7361729"/>
		<node id="491" x="1578592.80433158" y="-3921708.9085389"/>
		<node id="492" x="1578568.89851949" y="-3922005.61832844"/>
		<node id="493" x="1578586.93618984" y="-3921704.3579671"/>
		<node id="494" x="1578666.35619365" y="-3921728.41852158"/>
		<node id="495" x="1578449.76159922" y="-3922867.37414194"/>
		<node id="496" x="1578823.2144759" y="-3922715.55834168"/>
		<node id="497" x="1578868.32800008" y="-3922731.09673579"/>
		<node id="498" x="1578795.82961394" y="-3922335.1826407"/>
		<node id="499" x="1578937.20530725" y="-3922937.53881095"/>
		<node id="500" x="1578716.58652813" y="-3922649.96734381"/>
		<node id="501" x="1578959.33627559" y="-3922866.81086368"/>
		<node id="502" x="1578849.00358476" y="-3922642.41647659"/>
		<node id="503" x="1578883.55253816" y="-3922650.20635756"/>
		<node id="504" x="1578824.62169528" y="-3923386.97996329"/>
		<node id="505" x="1578827.72808941" y="-3921841.98967628"/>
		<node id="506" x="1579104.8172664" y="-3921388.24250764"/>
		<node id="507" x="1579009.53124167" y="-3921470.88504131"/>
		<node id="508" x="1578875.01002413" y="-3921791.10059799"/>
		<node id="509" x="1578783.38513078" y="-3921762.828795"/>
		<node id="510" x="1579206.67396125" y="-3922639.81247059"/>
		<node id="511" x="1578706.76641913" y="-3922506.25093709"/>
		<node id="512" x="1578809.58252611" y="-3922298.55199118"/>
		<node id="513" x="1578742.52666145" y="-3921773.83943404"/>
		<node id="514" x="1578814.36096381" y="-3921798.25941262"/>
		<node id="515" x="1578999.34391775" y="-3921459.78056686"/>
		<node id="516" x="1579111.84396765" y="-3921362.53629824"/>
		<node id="517" x="1578881.48781218" y="-3921825.35031096"/>
		<node id="518" x="1579586.0289626" y="-3920425.63401825"/>
		<node id="519" x="1578922.01501386" y="-3921815.53078858"/>
		<node id="520" x="1579056.76767895" y="-3921616.44641718"/>
		<node id="521" x="1578951.28224667" y="-3921817.70332707"/>
		<node id="522" x="1578733.56577355" y="-3922651.01466265"/>
		<node id="523" x="1578860.5629242" y="-3922001.83933854"/>
		<node id="524" x="1578588.46374836" y="-3922470.08307877"/>
		<node id="525" x="1578850.78991924" y="-3922015.65121772"/>
		<node id="526" x="1579034.46858258" y="-3921588.44787569"/>
		<node id="527" x="1579055.76433805" y="-3921612.39886637"/>
		<node id="528" x="1579075.06722457" y="-3921588.97437495"/>
		<node id="529" x="1579042.40148795" y="-3921564.52590513"/>
		<node id="530" x="1579038.39733066" y="-3921560.74427516"/>
		<node id="531" x="1579132.00720647" y="-3921337.79378234"/>
		<node id="532" x="1578669.11167772" y="-3921709.63031581"/>
		<node id="533" x="1578722.2890673" y="-3922506.34016725"/>
		<node id="534" x="1578653.63382772" y="-3921977.11766177"/>
		<node id="535" x="1578629.23950458" y="-3922286.59255288"/>
		<node id="536" x="1578649.87625317" y="-3922374.93996856"/>
		<node id="537" x="1579451.69838235" y="-3922379.10938646"/>
		<node id="538" x="1579484.94607944" y="-3922356.17053101"/>
		<node id="539" x="1579463.11383922" y="-3922376.30566869"/>
		<node id="540" x="1579102.36129914" y="-3921394.1299875"/>
		<node id="541" x="1578626.61644817" y="-3921706.08180591"/>
		<node id="542" x="1578794.47636286" y="-3921738.70690442"/>
		<node id="543" x="1578791.40028673" y="-3921937.60221396"/>
		<node id="544" x="1579405.5686896" y="-3922371.13622682"/>
		<node id="545" x="1578759.2191558" y="-3921955.03183137"/>
		<node id="546" x="1578768.72367522" y="-3921980.59909651"/>
		<node id="547" x="1579403.62869628" y="-3922171.84745315"/>
		<node id="548" x="1578636.74906127" y="-3922317.26459243"/>
		<node id="549" x="1579465.1543258" y="-3922192.36752061"/>
		<node id="550" x="1579467.41822712" y="-3922193.53717218"/>
		<node id="551" x="1578678.85649164" y="-3922257.78724748"/>
		<node id="552" x="1578427.06773223" y="-3922839.22127211"/>
		<node id="553" x="1578429.47505368" y="-3922901.53503018"/>
		<node id="554" x="1579370.3625509" y="-3923165.96422073"/>
		<node id="555" x="1579197.74209007" y="-3923114.63894137"/>
		<node id="556" x="1579367.70318004" y="-3923183.77491156"/>
		<node id="557" x="1579382.95460937" y="-3923507.06550903"/>
		<node id="558" x="1579514.17697369" y="-3923348.47057033"/>
		<node id="559" x="1578644.28119135" y="-3922503.76822909"/>
		<node id="560" x="1578610.45821987" y="-3923315.21446704"/>
		<node id="561" x="1578672.66954075" y="-3922646.44510733"/>
		<node id="562" x="1578614.23316558" y="-3923241.68931816"/>
		<node id="563" x="1578681.34164622" y="-3923246.05675168"/>
		<node id="564" x="1578650.45628661" y="-3923201.23702297"/>
		<node id="565" x="1578639.08718702" y="-3923314.16897075"/>
		<node id="566" x="1579188.5821515" y="-3923265.36574941"/>
		<node id="567" x="1579781.53192047" y="-3923305.99237716"/>
		<node id="568" x="1579930.72398886" y="-3923354.37504032"/>
		<node id="569" x="1579701.26128877" y="-3923305.70705137"/>
		<node id="570" x="1579673.11322733" y="-3923389.38293623"/>
		<node id="571" x="1579709.78487274" y="-3923400.89887709"/>
		<node id="572" x="1578621.20407139" y="-3923112.05728692"/>
		<node id="573" x="1579632.86740002" y="-3923377.30754696"/>
		<node id="574" x="1579766.03320812" y="-3923265.8412153"/>
		<node id="575" x="1579711.77245597" y="-3923430.68890867"/>
		<node id="576" x="1579831.13859084" y="-3922994.91827584"/>
		<node id="577" x="1578647.74792342" y="-3923243.88982201"/>
		<node id="578" x="1579233.86899062" y="-3922852.17333584"/>
		<node id="579" x="1579832.89044863" y="-3923035.17874887"/>
		<node id="580" x="1579816.7544179" y="-3923039.0687718"/>
		<node id="581" x="1579697.98598599" y="-3923440.04881408"/>
		<node id="582" x="1579758.73828761" y="-3923254.66637902"/>
		<node id="583" x="1578523.32634879" y="-3922766.82020263"/>
		<node id="584" x="1578481.90406163" y="-3922757.93973435"/>
		<node id="585" x="1578649.77312008" y="-3922393.35874396"/>
		<node id="586" x="1578447.85864063" y="-3922895.95905268"/>
		<node id="587" x="1579061.84255925" y="-3921868.09894215"/>
		<node id="588" x="1579097.61764028" y="-3921780.83104166"/>
		<node id="589" x="1579183.42643977" y="-3922139.34999884"/>
		<node id="590" x="1578978.17157555" y="-3922004.91255553"/>
		<node id="591" x="1579051.97824692" y="-3922027.14466599"/>
		<node id="592" x="1579177.06175364" y="-3922458.52831244"/>
		<node id="593" x="1579002.16277963" y="-3922592.36086916"/>
		<node id="594" x="1578668.44501605" y="-3922762.6210213"/>
		<node id="595" x="1578594.90496119" y="-3922178.29304449"/>
		<node id="596" x="1578590.08997638" y="-3922228.01671726"/>
		<node id="597" x="1578719.88313198" y="-3922388.18215404"/>
		<node id="598" x="1578628.63789171" y="-3922199.36817206"/>
		<node id="599" x="1578869.89499755" y="-3922105.60303485"/>
		<node id="600" x="1579180.99872303" y="-3922149.752229"/>
		<node id="601" x="1578763.82244944" y="-3922396.67496963"/>
		<node id="602" x="1578759.6357764" y="-3922430.56955834"/>
		<node id="603" x="1578887.31997931" y="-3922417.4662067"/>
		<node id="604" x="1578942.26660516" y="-3921834.64889365"/>
		<node id="605" x="1578955.81621329" y="-3921832.20554563"/>
		<node id="606" x="1579221.67853279" y="-3921710.94179035"/>
		<node id="607" x="1578706.00025483" y="-3921740.05011979"/>
		<node id="608" x="1579189.98329511" y="-3921832.65230261"/>
		<node id="609" x="1578479.1716153" y="-3922858.30510624"/>
		<node id="610" x="1578361.28054758" y="-3923114.33085728"/>
		<node id="611" x="1579181.89097809" y="-3922146.24428282"/>
		<node id="612" x="1578295.09354379" y="-3923287.67529467"/>
		<node id="613" x="1578343.66497647" y="-3923173.55269167"/>
		<node id="614" x="1578405.64525966" y="-3922748.08098895"/>
		<node id="615" x="1578289.60497301" y="-3923340.40369862"/>
		<node id="616" x="1578406.7777678" y="-3922915.42711158"/>
		<node id="617" x="1578307.42087267" y="-3923373.47601251"/>
		<node id="618" x="1578827.73381598" y="-3922027.27660159"/>
		<node id="619" x="1579618.73987379" y="-3922715.65531722"/>
		<node id="620" x="1579723.25307346" y="-3923057.77628927"/>
		<node id="621" x="1578572.37673055" y="-3922869.24043698"/>
		<node id="622" x="1578736.68215442" y="-3923224.91219672"/>
		<node id="623" x="1579622.72492566" y="-3923019.55844441"/>
		<node id="624" x="1579838.63194119" y="-3923024.19746291"/>
		<node id="625" x="1579453.34144433" y="-3922657.11427926"/>
		<node id="626" x="1579187.92847514" y="-3922667.4906554"/>
		<node id="627" x="1579180.93977924" y="-3922683.27888004"/>
		<node id="628" x="1579471.25159947" y="-3922343.69085546"/>
		<node id="629" x="1579462.97889673" y="-3922200.4655669"/>
		<node id="630" x="1579424.29463753" y="-3922185.38808669"/>
		<node id="631" x="1579497.07445236" y="-3922335.52206818"/>
		<node id="632" x="1579422.49828033" y="-3922350.36980227"/>
		<node id="633" x="1578739.84270132" y="-3923225.16945739"/>
		<node id="634" x="1579244.67176517" y="-3922579.90385262"/>
		<node id="635" x="1578867.81430941" y="-3923132.38058155"/>
		<node id="636" x="1579653.25209061" y="-3921902.33887801"/>
		<node id="637" x="1579481.7946821" y="-3922390.96512332"/>
		<node id="638" x="1579497.50361259" y="-3922367.05673338"/>
		<node id="639" x="1579517.35770497" y="-3922365.11551741"/>
		<node id="640" x="1579352.0354958" y="-3922369.01489781"/>
		<node id="641" x="1579839.47471414" y="-3923275.63289363"/>
		<node id="642" x="1579902.64833909" y="-3923297.63116094"/>
		<node id="643" x="1579803.54723826" y="-3923384.18769689"/>
		<node id="644" x="1578830.84992905" y="-3922676.1911308"/>
		<node id="645" x="1579854.43232995" y="-3923447.32875469"/>
		<node id="646" x="1578408.75758167" y="-3923209.61780762"/>
		<node id="647" x="1578905.67258284" y="-3922927.95893777"/>
		<node id="648" x="1578395.84969522" y="-3923251.38904221"/>
		<node id="649" x="1578211.5079299" y="-3923334.81451615"/>
		<node id="650" x="1578536.80272457" y="-3921698.78864987"/>
		<node id="651" x="1578549.40095079" y="-3921652.12014044"/>
		<node id="652" x="1578740.614513" y="-3923252.60838818"/>
		<node id="653" x="1578727.61728551" y="-3923355.57038095"/>
		<node id="654" x="1578441.7066882" y="-3923096.68503336"/>
		<node id="655" x="1578833.95022129" y="-3922676.75195612"/>
		<node id="656" x="1578397.37810374" y="-3923149.04152307"/>
		<node id="657" x="1579140.19212841" y="-3921334.43318934"/>
		<node id="658" x="1579648.61668202" y="-3923286.45348094"/>
		<node id="659" x="1579045.02418032" y="-3922357.84624649"/>
		<node id="660" x="1579559.38921753" y="-3923349.52403909"/>
		<node id="661" x="1579551.18707955" y="-3923351.53426982"/>
		<node id="662" x="1578712.88798947" y="-3922574.77872097"/>
		<node id="663" x="1578708.48670999" y="-3922647.65965719"/>
		<node id="664" x="1579279.62845545" y="-3922572.7372594"/>
		<node id="665" x="1579261.21104976" y="-3922553.33623284"/>
		<node id="666" x="1579440.47053921" y="-3922361.94656889"/>
		<node id="667" x="1579907.82684518" y="-3923050.24458234"/>
		<node id="668" x="1579862.2228817" y="-3923034.43366396"/>
		<node id="669" x="1579127.1950257" y="-3922834.33100411"/>
		<node id="670" x="1579219.92846481" y="-3922855.97693732"/>
		<node id="671" x="1579006.05330363" y="-3922504.11732935"/>
		<node id="672" x="1579327.94349468" y="-3922308.33469943"/>
		<node id="673" x="1579294.41718699" y="-3923221.58938916"/>
		<node id="674" x="1579025.92497686" y="-3922089.24489337"/>
		<node id="675" x="1579713.69395326" y="-3921841.08216676"/>
		<node id="676" x="1579404.4420755" y="-3922661.28932723"/>
		<node id="677" x="1578894.92874203" y="-3922429.34051967"/>
		<node id="678" x="1579325.48691154" y="-3922675.63422815"/>
		<node id="679" x="1578623.50799454" y="-3921758.05596907"/>
		<node id="680" x="1578588.37204291" y="-3921755.72183311"/>
		<node id="681" x="1578618.04924927" y="-3921824.79788884"/>
		<node id="682" x="1578583.45341218" y="-3921821.64713819"/>
		<node id="683" x="1578474.54630336" y="-3921648.0686807"/>
		<node id="684" x="1578862.51507008" y="-3921635.29024702"/>
		<node id="685" x="1578955.2029512" y="-3921558.26936272"/>
		<node id="686" x="1578897.96020263" y="-3921607.39579709"/>
		<node id="687" x="1578918.01272643" y="-3921630.99702908"/>
		<node id="688" x="1579824.54407317" y="-3923320.24290335"/>
		<node id="689" x="1578901.33593137" y="-3922367.12780537"/>
		<node id="690" x="1578902.73805782" y="-3921671.11514738"/>
		<node id="691" x="1578889.43577053" y="-3921655.10422429"/>
		<node id="692" x="1578557.89979463" y="-3923111.76738144"/>
		<node id="693" x="1578356.87187065" y="-3923078.34959825"/>
		<node id="694" x="1578971.96760823" y="-3922466.59733716"/>
		<node id="695" x="1578879.84597944" y="-3922449.79407717"/>
		<node id="696" x="1578534.67995395" y="-3921646.40584173"/>
		<node id="697" x="1579434.51294413" y="-3922600.45567831"/>
		<node id="698" x="1579417.80192485" y="-3922182.87822017"/>
		<node id="699" x="1579371.75605553" y="-3922641.87049572"/>
		<node id="700" x="1578239.81143039" y="-3922612.69166633"/>
		<node id="701" x="1579385.9681609" y="-3922655.513021"/>
		<node id="702" x="1579229.00547606" y="-3923107.69837404"/>
		<node id="703" x="1579088.95921088" y="-3922175.01508862"/>
		<node id="704" x="1579246.13563314" y="-3922331.43123432"/>
		<node id="705" x="1579217.1301365" y="-3922326.01934644"/>
		<node id="706" x="1579554.99318588" y="-3922231.68189977"/>
		<node id="707" x="1579545.40246751" y="-3922247.40074774"/>
		<node id="708" x="1578493.67052505" y="-3921557.39251189"/>
		<node id="709" x="1579474.92233592" y="-3922090.42213806"/>
		<node id="710" x="1579531.90335784" y="-3922144.25290534"/>
		<node id="711" x="1578252.73202136" y="-3922694.60758499"/>
		<node id="712" x="1579569.24231823" y="-3922162.68710881"/>
		<node id="713" x="1579837.70152019" y="-3923034.44982602"/>
		<node id="714" x="1579866.47791066" y="-3923024.32782741"/>
		<node id="715" x="1579897.26785652" y="-3922875.81521219"/>
		<node id="716" x="1579870.53576121" y="-3923025.28828811"/>
		<node id="717" x="1579900.79922395" y="-3922804.85189762"/>
		<node id="718" x="1579665.00731167" y="-3922086.41808648"/>
		<node id="719" x="1579393.75751923" y="-3923202.35797969"/>
		<node id="720" x="1578511.12504761" y="-3921646.00135435"/>
		<node id="721" x="1579425.04719011" y="-3923169.6815775"/>
		<node id="722" x="1578270.28212003" y="-3922724.08968677"/>
		<node id="723" x="1579532.61444942" y="-3921916.90681414"/>
		<node id="724" x="1579520.31462082" y="-3921950.79650846"/>
		<node id="725" x="1579499.89954957" y="-3922022.19337513"/>
		<node id="726" x="1579477.31209432" y="-3922081.10622298"/>
		<node id="727" x="1579371.92799423" y="-3922062.74989473"/>
		<node id="728" x="1579321.77261014" y="-3921906.2577869"/>
		<node id="729" x="1579488.28925918" y="-3923138.27997671"/>
		<node id="730" x="1579459.24096955" y="-3923151.79590491"/>
		<node id="731" x="1579564.96803805" y="-3922111.1202914"/>
		<node id="732" x="1578508.73164194" y="-3921531.96848647"/>
		<node id="733" x="1578263.41931538" y="-3922655.05912008"/>
		<node id="734" x="1579551.14998121" y="-3922120.36451699"/>
		<node id="735" x="1578695.72226486" y="-3922193.0282972"/>
		<node id="736" x="1578862.82174817" y="-3921855.6902801"/>
		<node id="737" x="1578814.35279843" y="-3922017.23569354"/>
		<node id="738" x="1578847.88263403" y="-3921996.89576025"/>
		<node id="739" x="1579002.25806092" y="-3922072.46257399"/>
		<node id="740" x="1578690.82143201" y="-3923100.04115499"/>
		<node id="741" x="1579042.45590114" y="-3921522.52242567"/>
		<node id="742" x="1579017.40702461" y="-3921495.25886754"/>
		<node id="743" x="1578687.16721831" y="-3923240.18774391"/>
		<node id="744" x="1578267.22369108" y="-3922571.38155245"/>
		<node id="745" x="1579160.46674648" y="-3921696.01333105"/>
		<node id="746" x="1578680.69686003" y="-3923327.67613523"/>
		<node id="747" x="1579812.68864285" y="-3923023.07089652"/>
		<node id="748" x="1579716.685518" y="-3923446.40273689"/>
		<node id="749" x="1580308.70381216" y="-3920949.46402829"/>
		<node id="750" x="1578999.22192176" y="-3923362.22182514"/>
		<node id="751" x="1578714.29339262" y="-3922541.58121143"/>
		<node id="752" x="1578989.88865668" y="-3923646.96113348"/>
		<node id="753" x="1579156.62418319" y="-3923274.3157624"/>
		<node id="754" x="1579393.49509412" y="-3922421.18507508"/>
		<node id="755" x="1578265.16235823" y="-3922792.76192045"/>
		<node id="756" x="1579396.30685951" y="-3922410.2899925"/>
		<node id="757" x="1579237.5935887" y="-3922364.69209646"/>
		<node id="758" x="1579179.30655927" y="-3921697.6627927"/>
		<node id="759" x="1579067.8972675" y="-3921719.16525759"/>
		<node id="760" x="1579264.96181442" y="-3921383.36856844"/>
		<node id="761" x="1580666.26693841" y="-3921602.3596881"/>
		<node id="762" x="1578312.62891811" y="-3922371.30878086"/>
		<node id="763" x="1578456.07419607" y="-3922418.61078207"/>
		<node id="764" x="1578462.83213101" y="-3922257.17593118"/>
		<node id="765" x="1578458.61130056" y="-3922354.59528815"/>
		<node id="766" x="1578261.65318818" y="-3922849.53813077"/>
		<node id="767" x="1578363.20702211" y="-3922299.96600506"/>
		<node id="768" x="1578458.41502408" y="-3922359.19040886"/>
		<node id="769" x="1578389.26797322" y="-3922091.9396705"/>
		<node id="770" x="1579173.08047246" y="-3922362.28355617"/>
		<node id="771" x="1578349.67549889" y="-3922511.93546793"/>
		<node id="772" x="1578923.51063707" y="-3921875.95812731"/>
		<node id="773" x="1578917.7691144" y="-3922032.6092244"/>
		<node id="774" x="1578327.22060439" y="-3923061.79081209"/>
		<node id="775" x="1578323.56178477" y="-3923072.50268488"/>
		<node id="776" x="1578717.26395221" y="-3922284.58550925"/>
		<node id="777" x="1579348.13591192" y="-3922182.38711567"/>
		<node id="778" x="1578506.92835426" y="-3922222.2411037"/>
		<node id="779" x="1578492.57560082" y="-3921549.62362246"/>
		<node id="780" x="1578658.28942008" y="-3922239.88449135"/>
		<node id="781" x="1578402.72532999" y="-3923059.57220409"/>
		<node id="782" x="1579181.63675916" y="-3922324.60292622"/>
		<node id="783" x="1579310.16833856" y="-3923165.82041691"/>
		<node id="784" x="1579321.5280092" y="-3923153.64183802"/>
		<node id="785" x="1579356.13665454" y="-3923155.46051646"/>
		<node id="786" x="1579370.86918939" y="-3923165.25439294"/>
		<node id="787" x="1579462.39501263" y="-3923313.11972933"/>
		<node id="788" x="1579231.24961974" y="-3922249.38810966"/>
		<node id="789" x="1579353.75192977" y="-3923174.24465402"/>
		<node id="790" x="1579596.84966045" y="-3920424.66400482"/>
		<node id="791" x="1579769.14512593" y="-3923221.77364188"/>
		<node id="792" x="1579797.21068994" y="-3923040.51755567"/>
		<node id="793" x="1579801.61584785" y="-3923054.32347693"/>
		<node id="794" x="1579097.06844375" y="-3922142.32949594"/>
		<node id="795" x="1579797.01862861" y="-3923053.36664111"/>
		<node id="796" x="1579794.14357596" y="-3923038.30146179"/>
		<node id="797" x="1578526.69225603" y="-3923105.63034754"/>
		<node id="798" x="1578493.62241111" y="-3923101.07460682"/>
		<node id="799" x="1578841.69109494" y="-3922141.84628568"/>
		<node id="800" x="1578790.38433652" y="-3922500.40755606"/>
		<node id="801" x="1579334.55475781" y="-3922410.43295157"/>
		<node id="802" x="1579345.90276335" y="-3922413.57856576"/>
		<node id="803" x="1579166.74286782" y="-3923067.55223629"/>
		<node id="804" x="1579353.90003045" y="-3922574.0411839"/>
		<node id="805" x="1579098.53263828" y="-3922959.65892251"/>
		<node id="806" x="1579114.73702486" y="-3922886.03160604"/>
		<node id="807" x="1579090.66587493" y="-3922167.75456484"/>
		<node id="808" x="1579006.49938403" y="-3923052.2073961"/>
		<node id="809" x="1579334.27382465" y="-3923348.72153707"/>
		<node id="810" x="1579762.49726576" y="-3923395.93677739"/>
		<node id="811" x="1578782.9784009" y="-3922532.43750877"/>
		<node id="812" x="1579753.7479315" y="-3923421.99658606"/>
		<node id="813" x="1579743.93832448" y="-3923418.61696742"/>
		<node id="814" x="1579808.98495934" y="-3923440.97333834"/>
		<node id="815" x="1579918.15877297" y="-3923249.49244203"/>
		<node id="816" x="1579855.35923037" y="-3923228.01351608"/>
		<node id="817" x="1579382.29917236" y="-3922180.3795782"/>
		<node id="818" x="1579414.31897381" y="-3922171.13787262"/>
		<node id="819" x="1578916.24839528" y="-3922346.49490416"/>
		<node id="820" x="1579425.4316892" y="-3922130.82491156"/>
		<node id="821" x="1578721.36981133" y="-3923250.74760654"/>
		<node id="822" x="1578777.04947729" y="-3922558.07958801"/>
		<node id="823" x="1578689.46525998" y="-3923503.95152257"/>
		<node id="824" x="1579001.63281865" y="-3922075.58408219"/>
		<node id="825" x="1578730.99933815" y="-3922377.09456434"/>
		<node id="826" x="1578724.85897598" y="-3922376.8834501"/>
		<node id="827" x="1579003.11216766" y="-3922070.10769065"/>
		<node id="828" x="1578722.61494345" y="-3922489.74520619"/>
		<node id="829" x="1578664.32376288" y="-3923582.65284329"/>
		<node id="830" x="1578755.93711507" y="-3923271.4042904"/>
		<node id="831" x="1579022.6609868" y="-3922356.75830895"/>
		<node id="832" x="1578713.29612496" y="-3923250.81583104"/>
		<node id="833" x="1578772.87218638" y="-3922576.26012527"/>
		<node id="834" x="1578700.02508151" y="-3922776.85115679"/>
		<node id="835" x="1578649.88093792" y="-3923578.58009928"/>
		<node id="836" x="1578708.31294188" y="-3922443.56894502"/>
		<node id="837" x="1578764.56181513" y="-3923277.18149493"/>
		<node id="838" x="1578670.07909928" y="-3923584.10296235"/>
		<node id="839" x="1578702.51980975" y="-3922776.74935105"/>
		<node id="840" x="1578716.41042464" y="-3923250.53209142"/>
		<node id="841" x="1578655.84280074" y="-3923579.94728529"/>
		<node id="842" x="1578715.77500373" y="-3922376.32248526"/>
		<node id="843" x="1578921.77531612" y="-3922301.19064268"/>
		<node id="844" x="1578757.606567" y="-3922640.39348897"/>
		<node id="845" x="1578874.83701075" y="-3921814.47692915"/>
		<node id="846" x="1579218.46785681" y="-3922172.50236551"/>
		<node id="847" x="1579010.47080905" y="-3922118.25648076"/>
		<node id="848" x="1579279.38189964" y="-3922039.29185267"/>
		<node id="849" x="1579235.49578836" y="-3922028.10925986"/>
		<node id="850" x="1579019.66094571" y="-3922305.09999542"/>
		<node id="851" x="1579016.6474877" y="-3922267.42892297"/>
		<node id="852" x="1578308.3871675" y="-3922469.42709886"/>
		<node id="853" x="1578427.16416183" y="-3922474.15977088"/>
		<node id="854" x="1578849.00546438" y="-3922036.02121639"/>
		<node id="855" x="1578748.19757576" y="-3922681.54064344"/>
		<node id="856" x="1578935.4016763" y="-3922303.51370292"/>
		<node id="857" x="1578830.37884967" y="-3922069.78604225"/>
		<node id="858" x="1578981.47994257" y="-3922143.82130125"/>
		<node id="859" x="1579005.00826998" y="-3922110.83228616"/>
		<node id="860" x="1578791.95010928" y="-3922052.03958752"/>
		<node id="861" x="1579801.03050625" y="-3923251.43096913"/>
		<node id="862" x="1579842.61743398" y="-3923265.44047004"/>
		<node id="863" x="1578469.13668313" y="-3921693.0766565"/>
		<node id="864" x="1578468.94712194" y="-3921713.54367256"/>
		<node id="865" x="1578833.20790342" y="-3921828.92284361"/>
		<node id="866" x="1578711.94260026" y="-3922589.31873567"/>
		<node id="867" x="1579223.54556857" y="-3922856.76503379"/>
		<node id="868" x="1579125.30087196" y="-3921716.61698787"/>
		<node id="869" x="1579277.74237811" y="-3922869.49169996"/>
		<node id="870" x="1579562.03492428" y="-3923348.66357599"/>
		<node id="871" x="1579630.61615268" y="-3923384.33719131"/>
		<node id="872" x="1579567.81537786" y="-3923360.04162838"/>
		<node id="873" x="1579631.66974221" y="-3923380.94052631"/>
		<node id="874" x="1578556.68751942" y="-3923177.08027649"/>
		<node id="875" x="1578964.47420714" y="-3923215.79135064"/>
		<node id="876" x="1578950.09540903" y="-3923233.7692106"/>
		<node id="877" x="1578713.92511076" y="-3922550.93077622"/>
		<node id="878" x="1579247.31663431" y="-3922753.11718367"/>
		<node id="879" x="1579242.91075945" y="-3922754.74867999"/>
		<node id="880" x="1578582.22330976" y="-3922468.77788447"/>
		<node id="881" x="1579096.43301177" y="-3921724.35587838"/>
		<node id="882" x="1579210.31633231" y="-3922749.63281046"/>
		<node id="883" x="1579220.21337285" y="-3922751.84328595"/>
		<node id="884" x="1579242.41680903" y="-3922757.18663197"/>
		<node id="885" x="1579252.155631" y="-3922737.48934845"/>
		<node id="886" x="1578984.83164311" y="-3922680.84640339"/>
		<node id="887" x="1578965.75186186" y="-3922676.7025243"/>
		<node id="888" x="1578714.63238259" y="-3922533.11863671"/>
		<node id="889" x="1579387.51309503" y="-3922448.2051786"/>
		<node id="890" x="1579367.89554874" y="-3922444.4543549"/>
		<node id="891" x="1578589.76091278" y="-3921717.44392026"/>
		<node id="892" x="1578548.05853052" y="-3921839.0021364"/>
		<node id="893" x="1579025.44764059" y="-3921857.50401345"/>
		<node id="894" x="1578585.90032291" y="-3921744.18806975"/>
		<node id="895" x="1578555.699582" y="-3921741.70969014"/>
		<node id="896" x="1578545.45605335" y="-3921871.65553431"/>
		<node id="897" x="1578567.89211545" y="-3921972.79069363"/>
		<node id="898" x="1578537.87041752" y="-3921970.83814374"/>
		<node id="899" x="1578633.11638291" y="-3922769.12556038"/>
		<node id="900" x="1578912.81829229" y="-3921635.38236483"/>
		<node id="901" x="1579388.29072605" y="-3922939.43825949"/>
		<node id="902" x="1579399.85100104" y="-3922894.66435454"/>
		<node id="903" x="1578564.17921505" y="-3921495.52373817"/>
		<node id="904" x="1578508.10829173" y="-3921483.13368058"/>
		<node id="905" x="1578953.80704646" y="-3922051.11817255"/>
		<node id="906" x="1578544.45699628" y="-3921493.26372614"/>
		<node id="907" x="1578723.25284772" y="-3921762.86439004"/>
		<node id="908" x="1578834.94823675" y="-3921811.03054835"/>
		<node id="909" x="1578474.19520632" y="-3923190.97676393"/>
		<node id="910" x="1579546.85905133" y="-3922155.26917071"/>
		<node id="911" x="1579264.05460915" y="-3922257.84077678"/>
		<node id="912" x="1578456.50400789" y="-3923189.77596505"/>
		<node id="913" x="1578493.19132907" y="-3922696.97800927"/>
		<node id="914" x="1578483.99084108" y="-3922696.59048892"/>
		<node id="915" x="1579209.71345305" y="-3921312.20424335"/>
		<node id="916" x="1579034.00304825" y="-3922072.22580074"/>
		<node id="917" x="1578323.37449416" y="-3923017.81214885"/>
		<node id="918" x="1578945.64298456" y="-3922194.59428382"/>
		<node id="919" x="1578246.49775348" y="-3923014.13972999"/>
		<node id="920" x="1583548.7485431" y="-3922535.78323256"/>
		<node id="921" x="1578362.73325724" y="-3922244.17884588"/>
		<node id="922" x="1578647.93462939" y="-3922432.41106003"/>
		<node id="923" x="1578505.14434475" y="-3922250.97566063"/>
		<node id="924" x="1578650.54803412" y="-3922336.13950224"/>
		<node id="925" x="1578427.21167809" y="-3921107.76270399"/>
		<node id="926" x="1578872.8924435" y="-3922696.35182519"/>
		<node id="927" x="1578865.38922957" y="-3922725.9248046"/>
		<node id="928" x="1578907.09174212" y="-3922740.32509517"/>
		<node id="929" x="1578955.04551708" y="-3922722.57429321"/>
		<node id="930" x="1578889.37876558" y="-3922165.42402687"/>
		<node id="931" x="1578919.34973581" y="-3923412.05106918"/>
		<node id="932" x="1579060.33884331" y="-3922830.87592941"/>
		<node id="933" x="1578721.02175626" y="-3922342.15074574"/>
		<node id="934" x="1579045.76818564" y="-3922888.0660121"/>
		<node id="935" x="1579026.12997531" y="-3922965.10732449"/>
		<node id="936" x="1578558.32854745" y="-3922131.58833905"/>
		<node id="937" x="1578554.10473818" y="-3922159.55238367"/>
		<node id="938" x="1578184.00296544" y="-3922561.33406635"/>
		<node id="939" x="1578188.51196783" y="-3922978.742817"/>
		<node id="940" x="1578050.32963947" y="-3922722.86612389"/>
		<node id="941" x="1581040.67228396" y="-3922020.4436872"/>
		<node id="942" x="1579833.00041879" y="-3923042.4002191"/>
		<node id="943" x="1579707.9534058" y="-3920931.14963548"/>
		<node id="944" x="1579283.24464941" y="-3922476.56772845"/>
		<node id="945" x="1579189.88462069" y="-3922016.63342999"/>
		<node id="946" x="1581286.73227087" y="-3920931.37076516"/>
		<node id="947" x="1582088.40791171" y="-3920858.69625423"/>
		<node id="948" x="1579395.97379415" y="-3920819.26568083"/>
		<node id="949" x="1578235.84559619" y="-3922218.91707778"/>
		<node id="950" x="1578255.93486211" y="-3922313.95965359"/>
		<node id="951" x="1578249.62059113" y="-3922335.72179969"/>
		<node id="952" x="1578172.15710433" y="-3921687.64745509"/>
		<node id="953" x="1578707.59564916" y="-3921918.80601065"/>
		<node id="954" x="1579743.16554232" y="-3923389.51790841"/>
		<node id="955" x="1579094.68493821" y="-3922978.20796472"/>
		<node id="956" x="1578252.51151472" y="-3922529.99437362"/>
		<node id="957" x="1579074.97366001" y="-3922239.75847123"/>
		<node id="958" x="1579069.82511541" y="-3922260.53374791"/>
		<node id="959" x="1578709.51802118" y="-3922833.38057019"/>
		<node id="960" x="1578742.43174304" y="-3922840.08720296"/>
		<node id="961" x="1578737.89976444" y="-3922841.62354353"/>
		<node id="962" x="1578966.89159336" y="-3922946.83092556"/>
		<node id="963" x="1578966.00446954" y="-3922954.54978028"/>
		<node id="964" x="1579028.49517011" y="-3922418.79783018"/>
		<node id="965" x="1579045.64193173" y="-3922408.58605788"/>
		<node id="966" x="1579297.7328308" y="-3922424.23962086"/>
		<node id="967" x="1579757.5576848" y="-3922881.8027234"/>
		<node id="968" x="1578255.90018748" y="-3922379.37776158"/>
		<node id="969" x="1578209.00461299" y="-3922390.39398511"/>
		<node id="970" x="1578249.44999628" y="-3922401.7894783"/>
		<node id="971" x="1579433.59479781" y="-3921258.85747486"/>
		<node id="972" x="1579719.9474731" y="-3921437.78015719"/>
		<node id="973" x="1579303.89723177" y="-3922401.97525293"/>
		<node id="974" x="1579312.28007632" y="-3922404.52282473"/>
		<node id="975" x="1578337.70488747" y="-3922750.07198886"/>
		<node id="976" x="1578700.45494501" y="-3922759.50191483"/>
		<node id="977" x="1578560.00178117" y="-3923048.76591172"/>
		<node id="978" x="1579056.3631067" y="-3920729.16653105"/>
		<node id="979" x="1579824.83316948" y="-3923008.37241542"/>
		<node id="980" x="1578206.23400211" y="-3921224.48818272"/>
		<node id="981" x="1579435.96130051" y="-3921508.27575294"/>
		<node id="982" x="1579445.33872019" y="-3921388.65835254"/>
		<node id="983" x="1583786.0439466" y="-3923789.38768198"/>
		<node id="984" x="1578700.80776756" y="-3922831.25607233"/>
		<node id="985" x="1577112.97719889" y="-3921082.80738476"/>
		<node id="986" x="1578562.47405748" y="-3921713.37329691"/>
		<node id="987" x="1578551.93851118" y="-3921704.52668864"/>
		<node id="988" x="1578555.81015514" y="-3923209.87500201"/>
		<node id="989" x="1578530.82646579" y="-3921690.50326838"/>
		<node id="990" x="1579541.61985903" y="-3921905.97455266"/>
		<node id="991" x="1578999.98941922" y="-3922081.10469595"/>
		<node id="992" x="1578454.58017031" y="-3922450.7712764"/>
		<node id="993" x="1578455.59139686" y="-3922477.89735108"/>
		<node id="994" x="1579225.479926" y="-3922144.47713342"/>
		<node id="995" x="1579398.20230434" y="-3922158.83685546"/>
		<node id="996" x="1579395.49610637" y="-3922157.57284592"/>
		<node id="997" x="1579384.19407301" y="-3922154.96817499"/>
		<node id="998" x="1579309.49672202" y="-3922131.51948814"/>
		<node id="999" x="1579307.3155597" y="-3922743.1710565"/>
		<node id="1000" x="1579295.80196336" y="-3922128.07280929"/>
		<node id="1001" x="1579264.68399867" y="-3922120.25356919"/>
		<node id="1002" x="1579250.48461121" y="-3922116.69285089"/>
		<node id="1003" x="1578498.8105823" y="-3922339.51677786"/>
		<node id="1004" x="1578881.46208687" y="-3922052.13195956"/>
		<node id="1005" x="1579219.6721105" y="-3922108.94924999"/>
		<node id="1006" x="1579205.5730058" y="-3922105.40241041"/>
		<node id="1007" x="1579175.19973507" y="-3922097.77515443"/>
		<node id="1008" x="1579160.87566045" y="-3922094.17509485"/>
		<node id="1009" x="1579030.12577247" y="-3922101.17307658"/>
		<node id="1010" x="1579364.61100425" y="-3922535.42116906"/>
		<node id="1011" x="1579084.2038562" y="-3922114.38307602"/>
		<node id="1012" x="1578864.50841956" y="-3922544.92495515"/>
		<node id="1013" x="1578699.87988292" y="-3923459.98786033"/>
		<node id="1014" x="1578708.16573359" y="-3923415.83117699"/>
		<node id="1015" x="1579519.86686778" y="-3923355.04673519"/>
		<node id="1016" x="1578881.73090907" y="-3921863.24065856"/>
		<node id="1017" x="1579532.07213756" y="-3923355.40383485"/>
		<node id="1018" x="1578871.66350247" y="-3921727.244176"/>
		<node id="1019" x="1578819.41466338" y="-3922725.67144032"/>
		<node id="1020" x="1578816.2546473" y="-3922753.25889429"/>
		<node id="1021" x="1578355.61543962" y="-3922385.57177296"/>
		<node id="1022" x="1578708.21286685" y="-3922653.61299083"/>
		<node id="1023" x="1578953.10988772" y="-3922198.4632612"/>
		<node id="1024" x="1579109.50022486" y="-3922128.0376814"/>
		<node id="1025" x="1579082.50892235" y="-3922121.28880155"/>
		<node id="1026" x="1579209.72308377" y="-3922145.94770605"/>
		<node id="1027" x="1579045.76237318" y="-3922111.97060035"/>
		<node id="1028" x="1579047.59564971" y="-3922105.13962473"/>
		<node id="1029" x="1578845.3834444" y="-3921947.0556127"/>
		<node id="1030" x="1579207.12050565" y="-3922156.27014801"/>
		<node id="1031" x="1579207.99905075" y="-3922152.72689993"/>
		<node id="1032" x="1578811.80436984" y="-3922814.14903184"/>
		<node id="1033" x="1579201.31268484" y="-3922241.63151104"/>
		<node id="1034" x="1578801.31847283" y="-3922811.22291028"/>
		<node id="1035" x="1578777.57060031" y="-3923007.72018646"/>
		<node id="1036" x="1578765.91199458" y="-3923006.09155475"/>
		<node id="1037" x="1578776.61312175" y="-3923048.58696649"/>
		<node id="1038" x="1578760.71758015" y="-3923046.15179563"/>
		<node id="1039" x="1578845.33182376" y="-3923266.2797663"/>
		<node id="1040" x="1579493.43584787" y="-3922019.87682369"/>
		<node id="1041" x="1579159.25402055" y="-3922448.58959748"/>
		<node id="1042" x="1579525.35895382" y="-3921915.81764519"/>
		<node id="1043" x="1579512.5883097" y="-3921949.88747966"/>
		<node id="1044" x="1578491.11875118" y="-3922612.06745881"/>
		<node id="1045" x="1578829.56766998" y="-3921946.45812967"/>
		<node id="1046" x="1578695.54819586" y="-3922276.37016656"/>
		<node id="1047" x="1579493.07942412" y="-3923080.20952137"/>
		<node id="1048" x="1578541.49066118" y="-3921715.61729757"/>
		<node id="1049" x="1578581.51960146" y="-3921614.03236038"/>
		<node id="1050" x="1578839.12848732" y="-3921957.52083536"/>
		<node id="1051" x="1578793.2161159" y="-3922080.34781532"/>
		<node id="1052" x="1578688.57858375" y="-3922259.44961691"/>
		<node id="1053" x="1578398.93360418" y="-3922839.50022478"/>
		<node id="1054" x="1579885.23904956" y="-3923546.05031935"/>
		<node id="1055" x="1578614.98738025" y="-3923227.85457163"/>
		<node id="1056" x="1579699.92463804" y="-3923177.79137581"/>
		<node id="1057" x="1579888.38856689" y="-3923543.28794259"/>
		<node id="1058" x="1579058.6118088" y="-3922305.8340226"/>
		<node id="1059" x="1578912.93786123" y="-3922343.07610732"/>
		<node id="1060" x="1578950.6118021" y="-3922197.1723451"/>
		<node id="1061" x="1578858.60206387" y="-3922543.42060269"/>
		<node id="1062" x="1578199.62277219" y="-3922796.95552686"/>
		<node id="1063" x="1578267.54258094" y="-3922775.48087807"/>
		<node id="1064" x="1578197.7908226" y="-3922754.40182608"/>
		<node id="1065" x="1578405.1585671" y="-3922758.5614645"/>
		<node id="1066" x="1578637.02383433" y="-3922687.36419355"/>
		<node id="1067" x="1579422.49635383" y="-3923321.70954464"/>
		<node id="1068" x="1579425.54953918" y="-3923330.29460758"/>
		<node id="1069" x="1579391.33067956" y="-3923200.68690205"/>
		<node id="1070" x="1579347.87373421" y="-3923294.20412859"/>
		<node id="1071" x="1579365.98486716" y="-3923297.27969848"/>
		<node id="1072" x="1579366.40700438" y="-3923295.76741994"/>
		<node id="1073" x="1579362.80440996" y="-3923308.6253695"/>
		<node id="1074" x="1579651.60658921" y="-3923266.31593069"/>
		<node id="1075" x="1578583.08172473" y="-3922394.69638618"/>
		<node id="1076" x="1579076.82254983" y="-3922232.0051987"/>
		<node id="1077" x="1578641.89376585" y="-3922567.02600038"/>
		<node id="1078" x="1579510.02540525" y="-3922244.39553706"/>
		<node id="1079" x="1579100.38469056" y="-3922129.18729955"/>
		<node id="1080" x="1578860.05495747" y="-3922590.80059713"/>
		<node id="1081" x="1578889.79036329" y="-3922618.35402233"/>
		<node id="1082" x="1579258.83324219" y="-3922946.354788"/>
		<node id="1083" x="1579378.37867161" y="-3922978.72561332"/>
		<node id="1084" x="1579300.8497247" y="-3922957.3917517"/>
		<node id="1085" x="1579303.50063677" y="-3922946.71940497"/>
		<node id="1086" x="1579239.62386017" y="-3923024.92529181"/>
		<node id="1087" x="1579225.44194706" y="-3923081.44507113"/>
		<node id="1088" x="1578616.3215429" y="-3923203.38155846"/>
		<node id="1089" x="1579270.62276038" y="-3923315.0213524"/>
		<node id="1090" x="1579502.64927061" y="-3922279.97766908"/>
		<node id="1091" x="1579259.43683449" y="-3923357.35237885"/>
		<node id="1092" x="1579478.2622839" y="-3923556.70295776"/>
		<node id="1093" x="1579523.17442204" y="-3922749.66196849"/>
		<node id="1094" x="1579488.80123139" y="-3922720.24219739"/>
		<node id="1095" x="1578852.62716454" y="-3922588.87499322"/>
		<node id="1096" x="1578554.13278849" y="-3923272.57039793"/>
		<node id="1097" x="1578547.01613111" y="-3923176.47185703"/>
		<node id="1098" x="1578508.13861027" y="-3923102.52860556"/>
		<node id="1099" x="1578626.95111507" y="-3922924.29296443"/>
		<node id="1100" x="1579219.79982014" y="-3921688.02892624"/>
		<node id="1101" x="1577407.59920119" y="-3922023.88373866"/>
		<node id="1102" x="1579461.33141046" y="-3922690.21481079"/>
		<node id="1103" x="1578428.93211582" y="-3922868.38080818"/>
		<node id="1104" x="1578393.04523808" y="-3923053.29353824"/>
		<node id="1105" x="1578718.79863758" y="-3922301.70402968"/>
		<node id="1106" x="1578515.68418469" y="-3922102.62560207"/>
		<node id="1107" x="1578477.24760962" y="-3922881.03973813"/>
		<node id="1108" x="1578979.31063722" y="-3922304.34033262"/>
		<node id="1109" x="1579013.68767478" y="-3922474.67398484"/>
		<node id="1110" x="1578621.65078077" y="-3923098.49714301"/>
		<node id="1111" x="1578862.98243405" y="-3922544.53649171"/>
		<node id="1112" x="1578878.71142154" y="-3921809.28599135"/>
		<node id="1113" x="1578542.84655748" y="-3921702.87334109"/>
		<node id="1114" x="1579466.25130805" y="-3922352.93657861"/>
		<node id="1115" x="1578575.97371076" y="-3921634.66367053"/>
		<node id="1116" x="1578559.12978338" y="-3921658.661507"/>
		<node id="1117" x="1578587.51037752" y="-3921619.37943746"/>
		<node id="1118" x="1578389.44059452" y="-3922752.67632654"/>
		<node id="1119" x="1578514.00223798" y="-3922139.9278829"/>
		<node id="1120" x="1579439.27179726" y="-3922766.13085116"/>
		<node id="1121" x="1578344.01458675" y="-3922841.2577259"/>
		<node id="1122" x="1579664.18523047" y="-3923276.90483326"/>
		<node id="1123" x="1578547.88163645" y="-3921500.03929266"/>
		<node id="1124" x="1578633.52413817" y="-3921638.87139848"/>
		<node id="1125" x="1578939.25405931" y="-3921824.14310666"/>
		<node id="1126" x="1578417.62376786" y="-3922511.51591532"/>
		<node id="1127" x="1579102.74297614" y="-3922658.07894548"/>
		<node id="1128" x="1579078.11497066" y="-3921592.2789701"/>
		<node id="1129" x="1579210.56382577" y="-3921493.83038653"/>
		<node id="1130" x="1579209.73410152" y="-3921483.87041859"/>
		<node id="1131" x="1578562.73727289" y="-3922069.56850647"/>
	</nodes>
	<links>
		<link id="0" from="0" to="1" length="88.25" freespeed="11.11" capacity="600.0" permlanes="1" modes="car,pt" origid="2077105"/>
		<link id="1" from="1" to="0" length="88.25" freespeed="11.11" capacity="600.0" permlanes="1" modes="car,pt" origid="2077105"/>
		<link id="4" from="532" to="69" length="100.71" freespeed="13.89" capacity="600.0" permlanes="1" modes="car,pt" origid="172324373"/>
		<link id="6" from="921" to="1021" length="142.34" freespeed="11.11" capacity="600.0" permlanes="1" modes="car,pt" origid="362252544"/>
		<link id="7" from="1021" to="921" length="142.34" freespeed="11.11" capacity="600.0" permlanes="1" modes="car,pt" origid="362252544"/>
		<link id="8" from="166" to="1087" length="31.08" freespeed="11.11" capacity="3600.0" permlanes="3" modes="car,pt" origid="753455245"/>
		<link id="10" from="1092" to="148" length="32.68" freespeed="16.67" capacity="1800.0" permlanes="1" modes="car,pt" origid="755193372"/>
		<link id="11" from="148" to="1092" length="32.68" freespeed="16.67" capacity="3600.0" permlanes="2" modes="car,pt" origid="755193372"/>
		<link id="12" from="270" to="1093" length="57.15" freespeed="16.67" capacity="1800.0" permlanes="1" modes="car,pt" origid="755193373"/>
		<link id="13" from="1093" to="270" length="57.15" freespeed="16.67" capacity="3600.0" permlanes="2" modes="car,pt" origid="755193373"/>
		<link id="14" from="1093" to="1094" length="45.48" freespeed="22.22" capacity="3600.0" permlanes="2" modes="car,pt" origid="755193374"/>
		<link id="15" from="1094" to="1093" length="45.48" freespeed="22.22" capacity="3600.0" permlanes="2" modes="car,pt" origid="755193374"/>
		<link id="16" from="271" to="273" length="82.42" freespeed="16.67" capacity="1800.0" permlanes="1" modes="car,pt" origid="755193375"/>
		<link id="17" from="273" to="271" length="82.42" freespeed="16.67" capacity="3600.0" permlanes="2" modes="car,pt" origid="755193375"/>
		<link id="18" from="273" to="1093" length="41.74" freespeed="16.67" capacity="1800.0" permlanes="1" modes="car,pt" origid="755193376"/>
		<link id="19" from="1093" to="273" length="41.74" freespeed="16.67" capacity="3600.0" permlanes="2" modes="car,pt" origid="755193376"/>
		<link id="20" from="954" to="177" length="443.30" freespeed="22.22" capacity="6000.0" permlanes="3" modes="car,pt" origid="14083153"/>
		<link id="21" from="177" to="954" length="443.30" freespeed="22.22" capacity="4000.0" permlanes="2" modes="car,pt" origid="14083153"/>
		<link id="22" from="796" to="272" length="4.22" freespeed="16.67" capacity="2800.0" permlanes="2" modes="car,pt" origid="757830097"/>
		<link id="28" from="923" to="778" length="28.94" freespeed="13.89" capacity="1000.0" permlanes="1" modes="car,pt" origid="385081630"/>
		<link id="29" from="778" to="923" length="28.94" freespeed="13.89" capacity="1000.0" permlanes="1" modes="car,pt" origid="385081630"/>
		<link id="30" from="737" to="860" length="41.64" freespeed="27.78" capacity="2000.0" permlanes="1" modes="car,pt" origid="764873132"/>
		<link id="31" from="860" to="737" length="41.64" freespeed="27.78" capacity="4000.0" permlanes="2" modes="car,pt" origid="764873132"/>
		<link id="32" from="239" to="340" length="104.84" freespeed="22.22" capacity="5400.0" permlanes="3" modes="car,pt" origid="764873133"/>
		<link id="33" from="340" to="239" length="104.84" freespeed="22.22" capacity="3600.0" permlanes="2" modes="car,pt" origid="764873133"/>
		<link id="34" from="1094" to="363" length="32.83" freespeed="22.22" capacity="1800.0" permlanes="1" modes="car,pt" origid="769968676"/>
		<link id="35" from="363" to="1094" length="32.83" freespeed="22.22" capacity="3600.0" permlanes="2" modes="car,pt" origid="769968676"/>
		<link id="36" from="286" to="654" length="27.74" freespeed="16.67" capacity="3600.0" permlanes="2" modes="car,pt" origid="770060970"/>
		<link id="37" from="654" to="286" length="27.74" freespeed="16.67" capacity="3600.0" permlanes="2" modes="car,pt" origid="770060970"/>
		<link id="38" from="285" to="286" length="21.35" freespeed="13.89" capacity="2000.0" permlanes="2" modes="car,pt" origid="770060971"/>
		<link id="40" from="798" to="286" length="24.64" freespeed="11.11" capacity="1200.0" permlanes="1" modes="car,pt" origid="770060972"/>
		<link id="42" from="1096" to="988" length="63.05" freespeed="11.11" capacity="1800.0" permlanes="3" modes="car,pt" origid="778420267"/>
		<link id="44" from="180" to="181" length="72.76" freespeed="11.11" capacity="6000.0" permlanes="3" modes="car,pt" origid="22790941"/>
		<link id="45" from="181" to="180" length="72.76" freespeed="11.11" capacity="4000.0" permlanes="2" modes="car,pt" origid="22790941"/>
		<link id="46" from="1097" to="874" length="9.74" freespeed="5.56" capacity="600.0" permlanes="1" modes="car,pt" origid="778420268"/>
		<link id="47" from="874" to="1097" length="9.74" freespeed="5.56" capacity="600.0" permlanes="1" modes="car,pt" origid="778420268"/>
		<link id="48" from="1098" to="798" length="14.67" freespeed="11.11" capacity="3600.0" permlanes="3" modes="car,pt" origid="778420273"/>
		<link id="49" from="798" to="1098" length="14.67" freespeed="11.11" capacity="1200.0" permlanes="1" modes="car,pt" origid="778420273"/>
		<link id="50" from="253" to="254" length="182.15" freespeed="19.44" capacity="10000.0" permlanes="1" modes="pt" origid="51381682"/>
		<link id="51" from="254" to="253" length="182.15" freespeed="19.44" capacity="10000.0" permlanes="1" modes="pt" origid="51381682"/>
		<link id="52" from="797" to="1098" length="18.92" freespeed="11.11" capacity="3600.0" permlanes="3" modes="car,pt" origid="778420274"/>
		<link id="54" from="291" to="75" length="41.58" freespeed="16.67" capacity="1400.0" permlanes="1" modes="car,pt" origid="781744387"/>
		<link id="56" from="265" to="595" length="4.17" freespeed="11.11" capacity="600.0" permlanes="1" modes="car,pt" origid="783110415"/>
		<link id="58" from="172" to="235" length="21.29" freespeed="19.44" capacity="3600.0" permlanes="2" modes="car,pt" origid="783110416"/>
		<link id="59" from="235" to="172" length="21.29" freespeed="19.44" capacity="3600.0" permlanes="2" modes="car,pt" origid="783110416"/>
		<link id="60" from="1100" to="298" length="278.83" freespeed="2.78" capacity="600.0" permlanes="1" modes="car,pt" origid="784968342"/>
		<link id="61" from="298" to="1100" length="278.83" freespeed="2.78" capacity="600.0" permlanes="1" modes="car,pt" origid="784968342"/>
		<link id="62" from="756" to="754" length="11.31" freespeed="11.11" capacity="1200.0" permlanes="1" modes="car,pt" origid="785914649"/>
		<link id="63" from="754" to="756" length="11.31" freespeed="11.11" capacity="1200.0" permlanes="1" modes="car,pt" origid="785914649"/>
		<link id="64" from="304" to="676" length="39.59" freespeed="13.89" capacity="5400.0" permlanes="3" modes="car,pt" origid="785914650"/>
		<link id="65" from="676" to="304" length="39.59" freespeed="13.89" capacity="3600.0" permlanes="2" modes="car,pt" origid="785914650"/>
		<link id="66" from="625" to="388" length="232.97" freespeed="13.89" capacity="3600.0" permlanes="2" modes="car,pt" origid="785917938"/>
		<link id="67" from="388" to="625" length="232.97" freespeed="13.89" capacity="3600.0" permlanes="2" modes="car,pt" origid="785917938"/>
		<link id="68" from="182" to="474" length="119.23" freespeed="11.11" capacity="600.0" permlanes="1" modes="car,pt" origid="24479025"/>
		<link id="70" from="480" to="999" length="20.02" freespeed="11.11" capacity="1200.0" permlanes="1" modes="car,pt" origid="785917939"/>
		<link id="71" from="999" to="480" length="20.02" freespeed="11.11" capacity="1200.0" permlanes="1" modes="car,pt" origid="785917939"/>
		<link id="72" from="924" to="219" length="32.47" freespeed="11.11" capacity="1600.0" permlanes="2" modes="car,pt" origid="734674660"/>
		<link id="74" from="754" to="889" length="27.82" freespeed="11.11" capacity="1200.0" permlanes="1" modes="car,pt" origid="785918400"/>
		<link id="75" from="889" to="754" length="27.82" freespeed="11.11" capacity="1200.0" permlanes="1" modes="car,pt" origid="785918400"/>
		<link id="76" from="597" to="4" length="46.84" freespeed="11.11" capacity="600.0" permlanes="1" modes="car,pt" origid="790043277"/>
		<link id="77" from="4" to="597" length="46.84" freespeed="11.11" capacity="600.0" permlanes="1" modes="car,pt" origid="790043277"/>
		<link id="78" from="512" to="237" length="30.03" freespeed="11.11" capacity="3600.0" permlanes="3" modes="car,pt" origid="790043278"/>
		<link id="79" from="237" to="512" length="30.03" freespeed="11.11" capacity="2400.0" permlanes="2" modes="car,pt" origid="790043278"/>
		<link id="80" from="1101" to="949" length="979.31" freespeed="5.56" capacity="600.0" permlanes="1" modes="pt" origid="793663896"/>
		<link id="81" from="949" to="1101" length="979.31" freespeed="5.56" capacity="600.0" permlanes="1" modes="pt" origid="793663896"/>
		<link id="82" from="476" to="21" length="45.76" freespeed="11.11" capacity="3200.0" permlanes="2" modes="car,pt" origid="816490712"/>
		<link id="83" from="21" to="476" length="45.76" freespeed="11.11" capacity="4800.0" permlanes="3" modes="car,pt" origid="816490712"/>
		<link id="84" from="934" to="114" length="20.81" freespeed="11.11" capacity="1800.0" permlanes="3" modes="car,pt" origid="816501797"/>
		<link id="86" from="285" to="654" length="34.82" freespeed="22.22" capacity="3600.0" permlanes="2" modes="car,pt" origid="821406897"/>
		<link id="87" from="654" to="285" length="34.82" freespeed="22.22" capacity="3600.0" permlanes="2" modes="car,pt" origid="821406897"/>
		<link id="88" from="232" to="225" length="30.13" freespeed="19.44" capacity="1800.0" permlanes="1" modes="car,pt" origid="821663802"/>
		<link id="89" from="225" to="232" length="30.13" freespeed="19.44" capacity="3600.0" permlanes="2" modes="car,pt" origid="821663802"/>
[...]
		<link id="2507" from="1012" to="211" length="45.82" freespeed="5.56" capacity="10000.0" permlanes="1" modes="pt" origid="700774593"/>
		<link id="2508" from="211" to="1012" length="45.82" freespeed="5.56" capacity="10000.0" permlanes="1" modes="pt" origid="700774593"/>
		<link id="2509" from="1014" to="622" length="194.41" freespeed="8.33" capacity="10000.0" permlanes="1" modes="pt" origid="700774594"/>
		<link id="2510" from="622" to="1014" length="194.41" freespeed="8.33" capacity="10000.0" permlanes="1" modes="pt" origid="700774594"/>
		<link id="2511" from="1015" to="558" length="8.74" freespeed="13.89" capacity="1000.0" permlanes="1" modes="car,pt" origid="701767924"/>
		<link id="2512" from="558" to="1015" length="8.74" freespeed="13.89" capacity="1000.0" permlanes="1" modes="car,pt" origid="701767924"/>
		<link id="2513" from="661" to="1017" length="19.61" freespeed="16.67" capacity="1600.0" permlanes="1" modes="car,pt" origid="701767925"/>
		<link id="2515" from="660" to="661" length="8.49" freespeed="16.67" capacity="1600.0" permlanes="1" modes="car,pt" origid="701767926"/>
		<link id="2517" from="339" to="1015" length="48.48" freespeed="13.89" capacity="600.0" permlanes="1" modes="car,pt" origid="701767927"/>
		<link id="2518" from="1015" to="339" length="48.48" freespeed="13.89" capacity="600.0" permlanes="1" modes="car,pt" origid="701767927"/>
		<link id="2519" from="162" to="139" length="602.35" freespeed="22.22" capacity="4000.0" permlanes="2" modes="car,pt" origid="5011712"/>
		<link id="2520" from="139" to="162" length="602.35" freespeed="22.22" capacity="4000.0" permlanes="2" modes="car,pt" origid="5011712"/>
		<link id="2521" from="690" to="1018" length="64.50" freespeed="5.56" capacity="600.0" permlanes="1" modes="car,pt" origid="701924001"/>
		<link id="2522" from="1018" to="690" length="64.50" freespeed="5.56" capacity="600.0" permlanes="1" modes="car,pt" origid="701924001"/>
		<link id="2523" from="895" to="892" length="98.11" freespeed="13.89" capacity="600.0" permlanes="1" modes="car,pt" origid="150425275"/>
		<link id="2524" from="892" to="895" length="98.11" freespeed="13.89" capacity="600.0" permlanes="1" modes="car,pt" origid="150425275"/>
		<link id="2525" from="1019" to="367" length="13.89" freespeed="19.44" capacity="10000.0" permlanes="1" modes="pt" origid="702219812"/>
		<link id="2526" from="367" to="1019" length="13.89" freespeed="19.44" capacity="10000.0" permlanes="1" modes="pt" origid="702219812"/>
		<link id="2527" from="918" to="245" length="2.65" freespeed="13.89" capacity="600.0" permlanes="1" modes="car,pt" origid="702219815"/>
		<link id="2528" from="245" to="918" length="2.65" freespeed="13.89" capacity="600.0" permlanes="1" modes="car,pt" origid="702219815"/>
		<link id="2529" from="674" to="233" length="13.89" freespeed="5.56" capacity="1000.0" permlanes="1" modes="car,pt" origid="702219816"/>
		<link id="2531" from="1024" to="1025" length="27.97" freespeed="19.44" capacity="10000.0" permlanes="1" modes="pt" origid="702219817"/>
		<link id="2532" from="1025" to="1024" length="27.97" freespeed="19.44" capacity="10000.0" permlanes="1" modes="pt" origid="702219817"/>
		<link id="2533" from="1011" to="589" length="102.86" freespeed="19.44" capacity="10000.0" permlanes="1" modes="pt" origid="702219818"/>
		<link id="2534" from="589" to="1011" length="102.86" freespeed="19.44" capacity="10000.0" permlanes="1" modes="pt" origid="702219818"/>
		<link id="2535" from="1011" to="311" length="19.41" freespeed="19.44" capacity="10000.0" permlanes="1" modes="pt" origid="702219819"/>
		<link id="2536" from="311" to="1011" length="19.41" freespeed="19.44" capacity="10000.0" permlanes="1" modes="pt" origid="702219819"/>
		<link id="2537" from="1028" to="311" length="19.40" freespeed="19.44" capacity="10000.0" permlanes="1" modes="pt" origid="702219820"/>
		<link id="2538" from="311" to="1028" length="19.40" freespeed="19.44" capacity="10000.0" permlanes="1" modes="pt" origid="702219820"/>
		<link id="2539" from="1030" to="600" length="27.07" freespeed="19.44" capacity="10000.0" permlanes="1" modes="pt" origid="702219821"/>
		<link id="2540" from="600" to="1030" length="27.07" freespeed="19.44" capacity="10000.0" permlanes="1" modes="pt" origid="702219821"/>
		<link id="2541" from="1031" to="611" length="27.04" freespeed="19.44" capacity="10000.0" permlanes="1" modes="pt" origid="702219823"/>
		<link id="2542" from="611" to="1031" length="27.04" freespeed="19.44" capacity="10000.0" permlanes="1" modes="pt" origid="702219823"/>
		<link id="2543" from="163" to="164" length="57.68" freespeed="11.11" capacity="1000.0" permlanes="1" modes="car,pt" origid="5011713"/>
		<link id="2544" from="164" to="163" length="57.68" freespeed="11.11" capacity="1000.0" permlanes="1" modes="car,pt" origid="5011713"/>
		<link id="2545" from="896" to="898" length="100.00" freespeed="13.89" capacity="600.0" permlanes="1" modes="car,pt" origid="150425275"/>
		<link id="2546" from="898" to="896" length="100.00" freespeed="13.89" capacity="600.0" permlanes="1" modes="car,pt" origid="150425275"/>
		<link id="2547" from="1032" to="200" length="9.24" freespeed="5.56" capacity="600.0" permlanes="1" modes="car,pt" origid="702219825"/>
		<link id="2548" from="200" to="1032" length="9.24" freespeed="5.56" capacity="600.0" permlanes="1" modes="car,pt" origid="702219825"/>
		<link id="2549" from="1035" to="378" length="10.14" freespeed="5.56" capacity="600.0" permlanes="1" modes="car,pt" origid="702219826"/>
		<link id="2551" from="1037" to="389" length="14.69" freespeed="5.56" capacity="600.0" permlanes="1" modes="car,pt" origid="702219827"/>
		<link id="2553" from="1039" to="652" length="106.82" freespeed="5.56" capacity="600.0" permlanes="1" modes="car,pt" origid="702219832"/>
		<link id="2555" from="544" to="756" length="40.45" freespeed="11.11" capacity="1200.0" permlanes="1" modes="car,pt" origid="702236995"/>
		<link id="2556" from="756" to="544" length="40.45" freespeed="11.11" capacity="1200.0" permlanes="1" modes="car,pt" origid="702236995"/>
		<link id="2557" from="726" to="709" length="9.67" freespeed="11.11" capacity="1000.0" permlanes="1" modes="car,pt" origid="702236996"/>
		<link id="2558" from="709" to="726" length="9.67" freespeed="11.11" capacity="1000.0" permlanes="1" modes="car,pt" origid="702236996"/>
		<link id="2559" from="1040" to="726" length="63.65" freespeed="11.11" capacity="1000.0" permlanes="1" modes="car,pt" origid="702236997"/>
		<link id="2560" from="726" to="1040" length="63.65" freespeed="11.11" capacity="2000.0" permlanes="2" modes="car,pt" origid="702236997"/>
		<link id="2561" from="1042" to="1043" length="36.63" freespeed="11.11" capacity="1000.0" permlanes="1" modes="car,pt" origid="702236998"/>
		<link id="2562" from="1043" to="1042" length="36.63" freespeed="11.11" capacity="2000.0" permlanes="2" modes="car,pt" origid="702236998"/>
		<link id="2563" from="1043" to="1040" length="72.95" freespeed="11.11" capacity="1000.0" permlanes="1" modes="car,pt" origid="702236999"/>
		<link id="2564" from="1040" to="1043" length="72.95" freespeed="11.11" capacity="1000.0" permlanes="1" modes="car,pt" origid="702236999"/>
		<link id="2565" from="1045" to="87" length="262.06" freespeed="22.22" capacity="3600.0" permlanes="2" modes="car,pt" origid="702243203"/>
		<link id="2566" from="87" to="1045" length="262.06" freespeed="22.22" capacity="3600.0" permlanes="2" modes="car,pt" origid="702243203"/>
		<link id="2567" from="898" to="492" length="65.77" freespeed="13.89" capacity="600.0" permlanes="1" modes="car,pt" origid="150425275"/>
		<link id="2568" from="492" to="898" length="65.77" freespeed="13.89" capacity="600.0" permlanes="1" modes="car,pt" origid="150425275"/>
		<link id="2571" from="295" to="2" length="3.93" freespeed="11.11" capacity="2400.0" permlanes="2" modes="car,pt" origid="702243205"/>
		<link id="2572" from="2" to="295" length="3.93" freespeed="11.11" capacity="2400.0" permlanes="2" modes="car,pt" origid="702243205"/>
		<link id="2573" from="831" to="659" length="22.51" freespeed="11.11" capacity="1200.0" permlanes="1" modes="car,pt" origid="702243206"/>
		<link id="2574" from="659" to="831" length="22.51" freespeed="11.11" capacity="1200.0" permlanes="1" modes="car,pt" origid="702243206"/>
		<link id="2575" from="1046" to="220" length="19.16" freespeed="13.89" capacity="1600.0" permlanes="2" modes="car,pt" origid="702243539"/>
		<link id="2577" from="1023" to="843" length="108.79" freespeed="5.56" capacity="1000.0" permlanes="1" modes="car,pt" origid="702243929"/>
		<link id="2579" from="695" to="603" length="33.36" freespeed="13.89" capacity="600.0" permlanes="1" modes="car,pt" origid="702375014"/>
		<link id="2581" from="1047" to="729" length="60.11" freespeed="5.56" capacity="600.0" permlanes="1" modes="car,pt" origid="703117344"/>
		<link id="2582" from="729" to="1047" length="60.11" freespeed="5.56" capacity="600.0" permlanes="1" modes="car,pt" origid="703117344"/>
		<link id="2583" from="414" to="419" length="3.42" freespeed="11.11" capacity="600.0" permlanes="1" modes="car,pt" origid="704502494"/>
		<link id="2584" from="419" to="414" length="3.42" freespeed="11.11" capacity="600.0" permlanes="1" modes="car,pt" origid="704502494"/>
		<link id="2585" from="1048" to="650" length="17.62" freespeed="13.89" capacity="1000.0" permlanes="1" modes="car,pt" origid="704502495"/>
		<link id="2587" from="1049" to="434" length="22.19" freespeed="13.89" capacity="1000.0" permlanes="1" modes="car,pt" origid="704502498"/>
		<link id="2589" from="900" to="687" length="6.83" freespeed="13.89" capacity="600.0" permlanes="1" modes="car,pt" origid="27108282"/>
		<link id="2590" from="687" to="900" length="6.83" freespeed="13.89" capacity="600.0" permlanes="1" modes="car,pt" origid="27108282"/>
		<link id="2591" from="415" to="412" length="2.56" freespeed="13.89" capacity="600.0" permlanes="1" modes="car,pt" origid="704502504"/>
		<link id="2592" from="412" to="415" length="2.56" freespeed="13.89" capacity="600.0" permlanes="1" modes="car,pt" origid="704502504"/>
		<link id="2593" from="169" to="170" length="52.87" freespeed="11.11" capacity="600.0" permlanes="1" modes="car,pt" origid="8123109"/>
		<link id="2594" from="170" to="169" length="52.87" freespeed="11.11" capacity="600.0" permlanes="1" modes="car,pt" origid="8123109"/>
		<link id="2595" from="1050" to="1051" length="132.35" freespeed="22.22" capacity="1800.0" permlanes="1" modes="car,pt" origid="704509511"/>
		<link id="2596" from="1051" to="1050" length="132.35" freespeed="22.22" capacity="3600.0" permlanes="2" modes="car,pt" origid="704509511"/>
		<link id="2597" from="737" to="1051" length="67.10" freespeed="22.22" capacity="1800.0" permlanes="1" modes="car,pt" origid="704509512"/>
		<link id="2598" from="1051" to="737" length="67.10" freespeed="22.22" capacity="3600.0" permlanes="2" modes="car,pt" origid="704509512"/>
		<link id="2599" from="1052" to="1046" length="18.40" freespeed="13.89" capacity="1600.0" permlanes="2" modes="car,pt" origid="704509514"/>
		<link id="2601" from="1054" to="1056" length="417.56" freespeed="16.67" capacity="10000.0" permlanes="1" modes="pt" origid="706359297"/>
		<link id="2602" from="1056" to="1054" length="417.56" freespeed="16.67" capacity="10000.0" permlanes="1" modes="pt" origid="706359297"/>
		<link id="2603" from="1056" to="467" length="41.78" freespeed="16.67" capacity="10000.0" permlanes="1" modes="pt" origid="706359302"/>
		<link id="2604" from="467" to="1056" length="41.78" freespeed="16.67" capacity="10000.0" permlanes="1" modes="pt" origid="706359302"/>
		<link id="2605" from="404" to="1057" length="416.86" freespeed="16.67" capacity="10000.0" permlanes="1" modes="pt" origid="706359303"/>
		<link id="2606" from="1057" to="404" length="416.86" freespeed="16.67" capacity="10000.0" permlanes="1" modes="pt" origid="706359303"/>
		<link id="2607" from="856" to="1108" length="44.15" freespeed="11.11" capacity="600.0" permlanes="1" modes="car,pt" origid="714111331"/>
		<link id="2608" from="1108" to="856" length="44.15" freespeed="11.11" capacity="600.0" permlanes="1" modes="car,pt" origid="714111331"/>
		<link id="2609" from="1059" to="677" length="88.62" freespeed="6.94" capacity="10000.0" permlanes="1" modes="pt" origid="720896377"/>
		<link id="2610" from="677" to="1059" length="88.62" freespeed="6.94" capacity="10000.0" permlanes="1" modes="pt" origid="720896377"/>
		<link id="2611" from="901" to="902" length="46.49" freespeed="8.33" capacity="600.0" permlanes="1" modes="car,pt" origid="151454218"/>
		<link id="2613" from="1060" to="1059" length="152.97" freespeed="11.11" capacity="10000.0" permlanes="1" modes="pt" origid="720896378"/>
		<link id="2614" from="1059" to="1060" length="152.97" freespeed="11.11" capacity="10000.0" permlanes="1" modes="pt" origid="720896378"/>
		<link id="2615" from="1025" to="1027" length="38.11" freespeed="19.44" capacity="10000.0" permlanes="1" modes="pt" origid="720896379"/>
		<link id="2616" from="1027" to="1025" length="38.11" freespeed="19.44" capacity="10000.0" permlanes="1" modes="pt" origid="720896379"/>
		<link id="2617" from="171" to="172" length="115.95" freespeed="19.44" capacity="3600.0" permlanes="2" modes="car,pt" origid="8281098"/>
		<link id="2618" from="172" to="171" length="115.95" freespeed="19.44" capacity="3600.0" permlanes="2" modes="car,pt" origid="8281098"/>
		<link id="2619" from="1061" to="368" length="41.78" freespeed="11.11" capacity="600.0" permlanes="1" modes="car,pt" origid="721183966"/>
		<link id="2621" from="201" to="198" length="18.86" freespeed="16.67" capacity="1600.0" permlanes="1" modes="car,pt" origid="721511772"/>
		<link id="2622" from="198" to="201" length="18.86" freespeed="16.67" capacity="1600.0" permlanes="1" modes="car,pt" origid="721511772"/>
		<link id="2623" from="582" to="791" length="34.70" freespeed="16.67" capacity="3200.0" permlanes="2" modes="car,pt" origid="721511773"/>
		<link id="2625" from="1062" to="1063" length="74.92" freespeed="5.56" capacity="600.0" permlanes="1" modes="pt" origid="725737435"/>
		<link id="2626" from="1063" to="1062" length="74.92" freespeed="5.56" capacity="600.0" permlanes="1" modes="pt" origid="725737435"/>
		<link id="2627" from="1064" to="1063" length="75.92" freespeed="5.56" capacity="600.0" permlanes="1" modes="car,pt" origid="725737543"/>
		<link id="2628" from="1063" to="1064" length="75.92" freespeed="5.56" capacity="600.0" permlanes="1" modes="car,pt" origid="725737543"/>
		<link id="2629" from="1067" to="1068" length="9.16" freespeed="5.56" capacity="600.0" permlanes="1" modes="car,pt" origid="726580880"/>
		<link id="2630" from="1068" to="1067" length="9.16" freespeed="5.56" capacity="600.0" permlanes="1" modes="car,pt" origid="726580880"/>
		<link id="2631" from="176" to="1070" length="28.71" freespeed="5.56" capacity="600.0" permlanes="1" modes="car,pt" origid="726580882"/>
		<link id="2632" from="1070" to="176" length="28.71" freespeed="5.56" capacity="600.0" permlanes="1" modes="car,pt" origid="726580882"/>
		<link id="2633" from="902" to="453" length="115.04" freespeed="8.33" capacity="600.0" permlanes="1" modes="car,pt" origid="151454218"/>
		<link id="2635" from="1070" to="1071" length="18.50" freespeed="5.56" capacity="600.0" permlanes="1" modes="car,pt" origid="726580884"/>
		<link id="2636" from="1071" to="1070" length="18.50" freespeed="5.56" capacity="600.0" permlanes="1" modes="car,pt" origid="726580884"/>
		<link id="2637" from="1072" to="1071" length="1.58" freespeed="5.56" capacity="600.0" permlanes="1" modes="car,pt" origid="726580885"/>
		<link id="2638" from="1071" to="1072" length="1.58" freespeed="5.56" capacity="600.0" permlanes="1" modes="car,pt" origid="726580885"/>
		<link id="2639" from="665" to="664" length="26.89" freespeed="11.11" capacity="1600.0" permlanes="1" modes="car,pt" origid="729906278"/>
		<link id="2640" from="664" to="665" length="26.89" freespeed="11.11" capacity="1600.0" permlanes="1" modes="car,pt" origid="729906278"/>
		<link id="2641" from="173" to="174" length="60.57" freespeed="22.22" capacity="1800.0" permlanes="1" modes="car,pt" origid="9786631"/>
		<link id="2642" from="174" to="173" length="60.57" freespeed="22.22" capacity="3600.0" permlanes="2" modes="car,pt" origid="9786631"/>
		<link id="2643" from="634" to="665" length="31.46" freespeed="11.11" capacity="4800.0" permlanes="3" modes="car,pt" origid="729906279"/>
		<link id="2644" from="665" to="634" length="31.46" freespeed="11.11" capacity="3200.0" permlanes="2" modes="car,pt" origid="729906279"/>
		<link id="2645" from="1074" to="288" length="7.03" freespeed="16.67" capacity="1400.0" permlanes="1" modes="car,pt" origid="731736636"/>
		<link id="2647" from="281" to="780" length="35.54" freespeed="19.44" capacity="6000.0" permlanes="3" modes="car,pt" origid="734400074"/>
		<link id="2648" from="780" to="281" length="35.54" freespeed="19.44" capacity="4000.0" permlanes="2" modes="car,pt" origid="734400074"/>
		<link id="2649" from="536" to="924" length="39.01" freespeed="11.11" capacity="1600.0" permlanes="2" modes="car,pt" origid="734674660"/>
		<link id="2651" from="1075" to="280" length="164.35" freespeed="11.11" capacity="1200.0" permlanes="2" modes="car,pt" origid="734688288"/>
		<link id="2652" from="280" to="1075" length="164.35" freespeed="11.11" capacity="600.0" permlanes="1" modes="car,pt" origid="734688288"/>
		<link id="2653" from="807" to="703" length="7.50" freespeed="11.11" capacity="600.0" permlanes="1" modes="car,pt" origid="742027555"/>
		<link id="2655" from="914" to="354" length="56.83" freespeed="13.89" capacity="1000.0" permlanes="1" modes="car,pt" origid="243014970"/>
		<link id="2656" from="354" to="914" length="56.83" freespeed="13.89" capacity="1000.0" permlanes="1" modes="car,pt" origid="243014970"/>
		<link id="2661" from="46" to="770" length="81.59" freespeed="11.11" capacity="2400.0" permlanes="2" modes="car,pt" origid="747933973"/>
		<link id="2662" from="770" to="46" length="81.59" freespeed="11.11" capacity="3600.0" permlanes="3" modes="car,pt" origid="747933973"/>
		<link id="2663" from="1082" to="1084" length="43.67" freespeed="5.56" capacity="600.0" permlanes="1" modes="car,pt" origid="752928457"/>
		<link id="2664" from="1084" to="1082" length="43.67" freespeed="5.56" capacity="600.0" permlanes="1" modes="car,pt" origid="752928457"/>
		<link id="2665" from="179" to="784" length="14.40" freespeed="13.89" capacity="1000.0" permlanes="1" modes="car,pt" origid="2948480"/>
		<link id="2667" from="175" to="1068" length="39.43" freespeed="13.89" capacity="600.0" permlanes="1" modes="car,pt" origid="11218466"/>
		<link id="2668" from="1068" to="175" length="39.43" freespeed="13.89" capacity="600.0" permlanes="1" modes="car,pt" origid="11218466"/>
		<link id="2669" from="1084" to="1085" length="11.05" freespeed="5.56" capacity="600.0" permlanes="1" modes="car,pt" origid="752928458"/>
		<link id="2670" from="1085" to="1084" length="11.05" freespeed="5.56" capacity="600.0" permlanes="1" modes="car,pt" origid="752928458"/>
		<link id="2671" from="1086" to="54" length="50.68" freespeed="11.11" capacity="3600.0" permlanes="3" modes="car,pt" origid="753455241"/>
		<link id="2672" from="54" to="1086" length="50.68" freespeed="11.11" capacity="2400.0" permlanes="2" modes="car,pt" origid="753455241"/>
		<link id="2673" from="1089" to="673" length="96.92" freespeed="11.11" capacity="3600.0" permlanes="3" modes="car,pt" origid="753455242"/>
		<link id="2674" from="673" to="1089" length="96.92" freespeed="11.11" capacity="3600.0" permlanes="3" modes="car,pt" origid="753455242"/>
		<link id="2675" from="1091" to="1089" length="44.02" freespeed="11.11" capacity="2400.0" permlanes="2" modes="car,pt" origid="753455243"/>
		<link id="2676" from="1089" to="1091" length="44.02" freespeed="11.11" capacity="3600.0" permlanes="3" modes="car,pt" origid="753455243"/>
	</links>
</network>
